<?xml version="1.0" encoding="UTF-8"?>

<!-- generated on 11/18/20 14:15:30 by Eclipse SUMO netedit Version 1.6.0
<configuration xmlns:xsi="http://www.w3.org/2001/XMLSchema-instance" xsi:noNamespaceSchemaLocation="http://sumo.dlr.de/xsd/netconvertConfiguration.xsd">

    <input>
        <sumo-net-file value="C:\Users\arai-lab\Documents\programming\study\iee\single_transaction\choice_split\rulebase.net.xml"/>
    </input>

    <output>
        <output-file value="C:\Users\arai-lab\Documents\programming\study\iee\single_transaction\choice_split\rulebase.net.xml"/>
    </output>

    <processing>
        <geometry.min-radius.fix.railways value="false"/>
        <geometry.max-grade.fix value="false"/>
        <offset.disable-normalization value="true"/>
        <lefthand value="false"/>
    </processing>

    <junctions>
        <no-turnarounds value="true"/>
        <junctions.corner-detail value="5"/>
        <junctions.limit-turn-speed value="5.5"/>
        <rectangular-lane-cut value="false"/>
    </junctions>

    <pedestrian>
        <walkingareas value="false"/>
    </pedestrian>

    <report>
        <aggregate-warnings value="5"/>
    </report>

</configuration>
-->

<net version="1.6" junctionCornerDetail="5" limitTurnSpeed="5.50" xmlns:xsi="http://www.w3.org/2001/XMLSchema-instance" xsi:noNamespaceSchemaLocation="http://sumo.dlr.de/xsd/net_file.xsd">

    <location netOffset="0.00,0.00" convBoundary="-400.00,-400.00,400.00,400.00" origBoundary="-10000000000.00,-10000000000.00,10000000000.00,10000000000.00" projParameter="!"/>

    <edge id=":b_0" function="internal">
        <lane id=":b_0_0" index="0" speed="13.89" length="0.10" shape="-4.80,-200.00 -4.80,-200.00"/>
        <lane id=":b_0_1" index="1" speed="13.89" length="0.10" shape="-1.60,-200.00 -1.60,-200.00"/>
    </edge>
    <edge id=":b_2" function="internal">
        <lane id=":b_2_0" index="0" speed="13.89" length="0.10" shape="4.80,-200.00 4.80,-200.00"/>
        <lane id=":b_2_1" index="1" speed="13.89" length="0.10" shape="1.60,-200.00 1.60,-200.00"/>
    </edge>
    <edge id=":c_0" function="internal">
        <lane id=":c_0_0" index="0" speed="6.51" length="9.03" shape="-4.80,10.40 -5.15,7.95 -6.20,6.20 -7.95,5.15 -10.40,4.80"/>
    </edge>
    <edge id=":c_1" function="internal">
        <lane id=":c_1_0" index="0" speed="13.89" length="20.80" shape="-4.80,10.40 -4.80,-10.40"/>
        <lane id=":c_1_1" index="1" speed="13.89" length="20.80" shape="-1.60,10.40 -1.60,-10.40"/>
    </edge>
    <edge id=":c_3" function="internal">
        <lane id=":c_3_0" index="0" speed="9.26" length="6.96" shape="-1.60,10.40 -0.85,5.15 0.00,3.73"/>
    </edge>
    <edge id=":c_16" function="internal">
        <lane id=":c_16_0" index="0" speed="9.26" length="12.40" shape="0.00,3.73 1.40,1.40 5.15,-0.85 10.40,-1.60"/>
    </edge>
    <edge id=":c_4" function="internal">
        <lane id=":c_4_0" index="0" speed="6.51" length="9.03" shape="10.40,4.80 7.95,5.15 6.20,6.20 5.15,7.95 4.80,10.40"/>
    </edge>
    <edge id=":c_5" function="internal">
        <lane id=":c_5_0" index="0" speed="13.89" length="20.80" shape="10.40,4.80 -10.40,4.80"/>
        <lane id=":c_5_1" index="1" speed="13.89" length="20.80" shape="10.40,1.60 -10.40,1.60"/>
    </edge>
    <edge id=":c_7" function="internal">
        <lane id=":c_7_0" index="0" speed="9.26" length="6.96" shape="10.40,1.60 5.15,0.85 3.73,0.00"/>
    </edge>
    <edge id=":c_17" function="internal">
        <lane id=":c_17_0" index="0" speed="9.26" length="12.40" shape="3.73,0.00 1.40,-1.40 -0.85,-5.15 -1.60,-10.40"/>
    </edge>
    <edge id=":c_8" function="internal">
        <lane id=":c_8_0" index="0" speed="6.51" length="9.03" shape="4.80,-10.40 5.15,-7.95 6.20,-6.20 7.95,-5.15 10.40,-4.80"/>
    </edge>
    <edge id=":c_9" function="internal">
        <lane id=":c_9_0" index="0" speed="13.89" length="20.80" shape="4.80,-10.40 4.80,10.40"/>
        <lane id=":c_9_1" index="1" speed="13.89" length="20.80" shape="1.60,-10.40 1.60,10.40"/>
    </edge>
    <edge id=":c_11" function="internal">
        <lane id=":c_11_0" index="0" speed="9.26" length="6.96" shape="1.60,-10.40 0.85,-5.15 0.00,-3.73"/>
    </edge>
    <edge id=":c_18" function="internal">
        <lane id=":c_18_0" index="0" speed="9.26" length="12.40" shape="0.00,-3.73 -1.40,-1.40 -5.15,0.85 -10.40,1.60"/>
    </edge>
    <edge id=":c_12" function="internal">
        <lane id=":c_12_0" index="0" speed="6.51" length="9.03" shape="-10.40,-4.80 -7.95,-5.15 -6.20,-6.20 -5.15,-7.95 -4.80,-10.40"/>
    </edge>
    <edge id=":c_13" function="internal">
        <lane id=":c_13_0" index="0" speed="13.89" length="20.80" shape="-10.40,-4.80 10.40,-4.80"/>
        <lane id=":c_13_1" index="1" speed="13.89" length="20.80" shape="-10.40,-1.60 10.40,-1.60"/>
    </edge>
    <edge id=":c_15" function="internal">
        <lane id=":c_15_0" index="0" speed="9.26" length="6.96" shape="-10.40,-1.60 -5.15,-0.85 -3.73,0.00"/>
    </edge>
    <edge id=":c_19" function="internal">
        <lane id=":c_19_0" index="0" speed="9.26" length="12.40" shape="-3.73,0.00 -1.40,1.40 0.85,5.15 1.60,10.40"/>
    </edge>
    <edge id=":l_0" function="internal">
        <lane id=":l_0_0" index="0" speed="13.89" length="0.10" shape="-200.00,4.80 -200.00,4.80"/>
        <lane id=":l_0_1" index="1" speed="13.89" length="0.10" shape="-200.00,1.60 -200.00,1.60"/>
    </edge>
    <edge id=":l_2" function="internal">
        <lane id=":l_2_0" index="0" speed="13.89" length="0.10" shape="-200.00,-4.80 -200.00,-4.80"/>
        <lane id=":l_2_1" index="1" speed="13.89" length="0.10" shape="-200.00,-1.60 -200.00,-1.60"/>
    </edge>
    <edge id=":r_0" function="internal">
        <lane id=":r_0_0" index="0" speed="13.89" length="0.10" shape="200.00,4.80 200.00,4.80"/>
        <lane id=":r_0_1" index="1" speed="13.89" length="0.10" shape="200.00,1.60 200.00,1.60"/>
    </edge>
    <edge id=":r_2" function="internal">
        <lane id=":r_2_0" index="0" speed="13.89" length="0.10" shape="200.00,-4.80 200.00,-4.80"/>
        <lane id=":r_2_1" index="1" speed="13.89" length="0.10" shape="200.00,-1.60 200.00,-1.60"/>
    </edge>
    <edge id=":t_0" function="internal">
        <lane id=":t_0_0" index="0" speed="13.89" length="0.10" shape="-4.80,200.00 -4.80,200.00"/>
        <lane id=":t_0_1" index="1" speed="13.89" length="0.10" shape="-1.60,200.00 -1.60,200.00"/>
    </edge>
    <edge id=":t_2" function="internal">
        <lane id=":t_2_0" index="0" speed="13.89" length="0.10" shape="4.80,200.00 4.80,200.00"/>
        <lane id=":t_2_1" index="1" speed="13.89" length="0.10" shape="1.60,200.00 1.60,200.00"/>
    </edge>

    <edge id="b_bb" from="b" to="bb" priority="-1">
        <lane id="b_bb_0" index="0" speed="13.89" length="200.00" shape="-4.80,-200.00 -4.80,-400.00"/>
        <lane id="b_bb_1" index="1" speed="13.89" length="200.00" shape="-1.60,-200.00 -1.60,-400.00"/>
    </edge>
    <edge id="b_c" from="b" to="c" priority="-1">
        <lane id="b_c_0" index="0" speed="13.89" length="189.60" shape="4.80,-200.00 4.80,-10.40"/>
        <lane id="b_c_1" index="1" speed="13.89" length="189.60" shape="1.60,-200.00 1.60,-10.40"/>
    </edge>
    <edge id="bb_b" from="bb" to="b" priority="-1">
        <lane id="bb_b_0" index="0" speed="13.89" length="200.00" shape="4.80,-400.00 4.80,-200.00"/>
        <lane id="bb_b_1" index="1" speed="13.89" length="200.00" shape="1.60,-400.00 1.60,-200.00"/>
    </edge>
    <edge id="c_b" from="c" to="b" priority="-1">
        <lane id="c_b_0" index="0" speed="13.89" length="189.60" shape="-4.80,-10.40 -4.80,-200.00"/>
        <lane id="c_b_1" index="1" speed="13.89" length="189.60" shape="-1.60,-10.40 -1.60,-200.00"/>
    </edge>
    <edge id="c_l" from="c" to="l" priority="-1">
        <lane id="c_l_0" index="0" speed="13.89" length="189.60" shape="-10.40,4.80 -200.00,4.80"/>
        <lane id="c_l_1" index="1" speed="13.89" length="189.60" shape="-10.40,1.60 -200.00,1.60"/>
    </edge>
    <edge id="c_r" from="c" to="r" priority="-1">
        <lane id="c_r_0" index="0" speed="13.89" length="189.60" shape="10.40,-4.80 200.00,-4.80"/>
        <lane id="c_r_1" index="1" speed="13.89" length="189.60" shape="10.40,-1.60 200.00,-1.60"/>
    </edge>
    <edge id="c_t" from="c" to="t" priority="-1">
        <lane id="c_t_0" index="0" speed="13.89" length="189.60" shape="4.80,10.40 4.80,200.00"/>
        <lane id="c_t_1" index="1" speed="13.89" length="189.60" shape="1.60,10.40 1.60,200.00"/>
    </edge>
    <edge id="l_c" from="l" to="c" priority="-1">
        <lane id="l_c_0" index="0" speed="13.89" length="189.60" shape="-200.00,-4.80 -10.40,-4.80"/>
        <lane id="l_c_1" index="1" speed="13.89" length="189.60" shape="-200.00,-1.60 -10.40,-1.60"/>
    </edge>
    <edge id="l_ll" from="l" to="ll" priority="-1">
        <lane id="l_ll_0" index="0" speed="13.89" length="200.00" shape="-200.00,4.80 -400.00,4.80"/>
        <lane id="l_ll_1" index="1" speed="13.89" length="200.00" shape="-200.00,1.60 -400.00,1.60"/>
    </edge>
    <edge id="ll_l" from="ll" to="l" priority="-1">
        <lane id="ll_l_0" index="0" speed="13.89" length="200.00" shape="-400.00,-4.80 -200.00,-4.80"/>
        <lane id="ll_l_1" index="1" speed="13.89" length="200.00" shape="-400.00,-1.60 -200.00,-1.60"/>
    </edge>
    <edge id="r_c" from="r" to="c" priority="-1">
        <lane id="r_c_0" index="0" speed="13.89" length="189.60" shape="200.00,4.80 10.40,4.80"/>
        <lane id="r_c_1" index="1" speed="13.89" length="189.60" shape="200.00,1.60 10.40,1.60"/>
    </edge>
    <edge id="r_rr" from="r" to="rr" priority="-1">
        <lane id="r_rr_0" index="0" speed="13.89" length="200.00" shape="200.00,-4.80 400.00,-4.80"/>
        <lane id="r_rr_1" index="1" speed="13.89" length="200.00" shape="200.00,-1.60 400.00,-1.60"/>
    </edge>
    <edge id="rr_r" from="rr" to="r" priority="-1">
        <lane id="rr_r_0" index="0" speed="13.89" length="200.00" shape="400.00,4.80 200.00,4.80"/>
        <lane id="rr_r_1" index="1" speed="13.89" length="200.00" shape="400.00,1.60 200.00,1.60"/>
    </edge>
    <edge id="t_c" from="t" to="c" priority="-1">
        <lane id="t_c_0" index="0" speed="13.89" length="189.60" shape="-4.80,200.00 -4.80,10.40"/>
        <lane id="t_c_1" index="1" speed="13.89" length="189.60" shape="-1.60,200.00 -1.60,10.40"/>
    </edge>
    <edge id="t_tt" from="t" to="tt" priority="-1">
        <lane id="t_tt_0" index="0" speed="13.89" length="200.00" shape="4.80,200.00 4.80,400.00"/>
        <lane id="t_tt_1" index="1" speed="13.89" length="200.00" shape="1.60,200.00 1.60,400.00"/>
    </edge>
    <edge id="tt_t" from="tt" to="t" priority="-1">
        <lane id="tt_t_0" index="0" speed="13.89" length="200.00" shape="-4.80,400.00 -4.80,200.00"/>
        <lane id="tt_t_1" index="1" speed="13.89" length="200.00" shape="-1.60,400.00 -1.60,200.00"/>
    </edge>

    <tlLogic id="c" type="static" programID="1" offset="0">
        <phase duration="42" state="GGGgrrrrGGGgrrrr"/>
        <phase duration="3"  state="yyyyrrrryyyyrrrr"/>
        <phase duration="42" state="rrrrGGGgrrrrGGGg"/>
        <phase duration="3"  state="rrrryyyyrrrryyyy"/>
    </tlLogic>

    <junction id="b" type="priority" x="0.00" y="-200.00" incLanes="c_b_0 c_b_1 bb_b_0 bb_b_1" intLanes=":b_0_0 :b_0_1 :b_2_0 :b_2_1" shape="-6.40,-200.00 6.40,-200.00 -6.40,-200.00">
        <request index="0" response="0000" foes="0000" cont="0"/>
        <request index="1" response="0000" foes="0000" cont="0"/>
        <request index="2" response="0000" foes="0000" cont="0"/>
        <request index="3" response="0000" foes="0000" cont="0"/>
    </junction>
    <junction id="bb" type="dead_end" x="0.00" y="-400.00" incLanes="b_bb_0 b_bb_1" intLanes="" shape="0.00,-400.00 -6.40,-400.00 0.00,-400.00"/>
    <junction id="c" type="traffic_light" x="0.00" y="0.00" incLanes="t_c_0 t_c_1 r_c_0 r_c_1 b_c_0 b_c_1 l_c_0 l_c_1" intLanes=":c_0_0 :c_1_0 :c_1_1 :c_16_0 :c_4_0 :c_5_0 :c_5_1 :c_17_0 :c_8_0 :c_9_0 :c_9_1 :c_18_0 :c_12_0 :c_13_0 :c_13_1 :c_19_0" shape="-6.40,10.40 6.40,10.40 6.84,8.18 7.40,7.40 8.18,6.84 9.18,6.51 10.40,6.40 10.40,-6.40 8.18,-6.84 7.40,-7.40 6.84,-8.18 6.51,-9.18 6.40,-10.40 -6.40,-10.40 -6.84,-8.18 -7.40,-7.40 -8.18,-6.84 -9.18,-6.51 -10.40,-6.40 -10.40,6.40 -8.18,6.84 -7.40,7.40 -6.84,8.18 -6.51,9.18">
        <request index="0"  response="0000000000000000" foes="0000000001100000" cont="0"/>
        <request index="1"  response="1000000010000000" foes="1111100011100000" cont="0"/>
        <request index="2"  response="1000000010000000" foes="1111100011100000" cont="0"/>
        <request index="3"  response="1000011010000000" foes="1110011011100000" cont="1"/>
        <request index="4"  response="0000011000000000" foes="0000011000000000" cont="0"/>
        <request index="5"  response="0000111000001111" foes="1000111000001111" cont="0"/>
        <request index="6"  response="0000111000001111" foes="1000111000001111" cont="0"/>
        <request index="7"  response="0110111000001110" foes="0110111000001110" cont="1"/>
        <request index="8"  response="0000000000000000" foes="0110000000000000" cont="0"/>
        <request index="9"  response="1000000010000000" foes="1110000011111000" cont="0"/>
        <request index="10" response="1000000010000000" foes="1110000011111000" cont="0"/>
        <request index="11" response="1000000010000110" foes="1110000011100110" cont="1"/>
        <request index="12" response="0000000000000110" foes="0000000000000110" cont="0"/>
        <request index="13" response="0000111100001110" foes="0000111110001110" cont="0"/>
        <request index="14" response="0000111100001110" foes="0000111110001110" cont="0"/>
        <request index="15" response="0000111001101110" foes="0000111001101110" cont="1"/>
    </junction>
    <junction id="l" type="priority" x="-200.00" y="0.00" incLanes="c_l_0 c_l_1 ll_l_0 ll_l_1" intLanes=":l_0_0 :l_0_1 :l_2_0 :l_2_1" shape="-200.00,6.40 -200.00,-6.40 -200.00,6.40">
        <request index="0" response="0000" foes="0000" cont="0"/>
        <request index="1" response="0000" foes="0000" cont="0"/>
        <request index="2" response="0000" foes="0000" cont="0"/>
        <request index="3" response="0000" foes="0000" cont="0"/>
    </junction>
    <junction id="ll" type="dead_end" x="-400.00" y="0.00" incLanes="l_ll_0 l_ll_1" intLanes="" shape="-400.00,0.00 -400.00,6.40 -400.00,0.00"/>
    <junction id="r" type="priority" x="200.00" y="0.00" incLanes="rr_r_0 rr_r_1 c_r_0 c_r_1" intLanes=":r_0_0 :r_0_1 :r_2_0 :r_2_1" shape="200.00,6.40 200.00,-6.40 200.00,6.40">
        <request index="0" response="0000" foes="0000" cont="0"/>
        <request index="1" response="0000" foes="0000" cont="0"/>
        <request index="2" response="0000" foes="0000" cont="0"/>
        <request index="3" response="0000" foes="0000" cont="0"/>
    </junction>
    <junction id="rr" type="dead_end" x="400.00" y="0.00" incLanes="r_rr_0 r_rr_1" intLanes="" shape="400.00,0.00 400.00,-6.40 400.00,0.00"/>
    <junction id="t" type="priority" x="0.00" y="200.00" incLanes="tt_t_0 tt_t_1 c_t_0 c_t_1" intLanes=":t_0_0 :t_0_1 :t_2_0 :t_2_1" shape="-6.40,200.00 6.40,200.00 -6.40,200.00">
        <request index="0" response="0000" foes="0000" cont="0"/>
        <request index="1" response="0000" foes="0000" cont="0"/>
        <request index="2" response="0000" foes="0000" cont="0"/>
        <request index="3" response="0000" foes="0000" cont="0"/>
    </junction>
    <junction id="tt" type="dead_end" x="0.00" y="400.00" incLanes="t_tt_0 t_tt_1" intLanes="" shape="0.00,400.00 6.40,400.00 0.00,400.00"/>

    <junction id=":c_16_0" type="internal" x="0.00" y="3.73" incLanes=":c_3_0 b_c_0 b_c_1" intLanes=":c_5_0 :c_5_1 :c_7_0 :c_8_0 :c_9_0 :c_9_1 :c_13_0 :c_13_1 :c_15_0"/>
    <junction id=":c_17_0" type="internal" x="3.73" y="0.00" incLanes=":c_7_0 l_c_0 l_c_1" intLanes=":c_1_0 :c_1_1 :c_3_0 :c_9_0 :c_9_1 :c_11_0 :c_12_0 :c_13_0 :c_13_1"/>
    <junction id=":c_18_0" type="internal" x="0.00" y="-3.73" incLanes=":c_11_0 t_c_0 t_c_1" intLanes=":c_0_0 :c_1_0 :c_1_1 :c_5_0 :c_5_1 :c_7_0 :c_13_0 :c_13_1 :c_15_0"/>
    <junction id=":c_19_0" type="internal" x="-3.73" y="0.00" incLanes=":c_15_0 r_c_0 r_c_1" intLanes=":c_1_0 :c_1_1 :c_3_0 :c_4_0 :c_5_0 :c_5_1 :c_9_0 :c_9_1 :c_11_0"/>

    <connection from="b_c" to="c_r" fromLane="0" toLane="0" via=":c_8_0" tl="c" linkIndex="8" dir="r" state="O"/>
    <connection from="b_c" to="c_t" fromLane="0" toLane="0" via=":c_9_0" tl="c" linkIndex="9" dir="s" state="O"/>
    <connection from="b_c" to="c_t" fromLane="1" toLane="1" via=":c_9_1" tl="c" linkIndex="10" dir="s" state="O"/>
    <connection from="b_c" to="c_l" fromLane="1" toLane="1" via=":c_11_0" tl="c" linkIndex="11" dir="l" state="o"/>
    <connection from="bb_b" to="b_c" fromLane="0" toLane="0" via=":b_2_0" dir="s" state="M"/>
    <connection from="bb_b" to="b_c" fromLane="1" toLane="1" via=":b_2_1" dir="s" state="M"/>
    <connection from="c_b" to="b_bb" fromLane="0" toLane="0" via=":b_0_0" dir="s" state="M"/>
    <connection from="c_b" to="b_bb" fromLane="1" toLane="1" via=":b_0_1" dir="s" state="M"/>
    <connection from="c_l" to="l_ll" fromLane="0" toLane="0" via=":l_0_0" dir="s" state="M"/>
    <connection from="c_l" to="l_ll" fromLane="1" toLane="1" via=":l_0_1" dir="s" state="M"/>
    <connection from="c_r" to="r_rr" fromLane="0" toLane="0" via=":r_2_0" dir="s" state="M"/>
    <connection from="c_r" to="r_rr" fromLane="1" toLane="1" via=":r_2_1" dir="s" state="M"/>
    <connection from="c_t" to="t_tt" fromLane="0" toLane="0" via=":t_2_0" dir="s" state="M"/>
    <connection from="c_t" to="t_tt" fromLane="1" toLane="1" via=":t_2_1" dir="s" state="M"/>
    <connection from="l_c" to="c_b" fromLane="0" toLane="0" via=":c_12_0" tl="c" linkIndex="12" dir="r" state="o"/>
    <connection from="l_c" to="c_r" fromLane="0" toLane="0" via=":c_13_0" tl="c" linkIndex="13" dir="s" state="o"/>
    <connection from="l_c" to="c_r" fromLane="1" toLane="1" via=":c_13_1" tl="c" linkIndex="14" dir="s" state="o"/>
    <connection from="l_c" to="c_t" fromLane="1" toLane="1" via=":c_15_0" tl="c" linkIndex="15" dir="l" state="o"/>
    <connection from="ll_l" to="l_c" fromLane="0" toLane="0" via=":l_2_0" dir="s" state="M"/>
    <connection from="ll_l" to="l_c" fromLane="1" toLane="1" via=":l_2_1" dir="s" state="M"/>
    <connection from="r_c" to="c_t" fromLane="0" toLane="0" via=":c_4_0" tl="c" linkIndex="4" dir="r" state="o"/>
    <connection from="r_c" to="c_l" fromLane="0" toLane="0" via=":c_5_0" tl="c" linkIndex="5" dir="s" state="o"/>
    <connection from="r_c" to="c_l" fromLane="1" toLane="1" via=":c_5_1" tl="c" linkIndex="6" dir="s" state="o"/>
    <connection from="r_c" to="c_b" fromLane="1" toLane="1" via=":c_7_0" tl="c" linkIndex="7" dir="l" state="o"/>
    <connection from="rr_r" to="r_c" fromLane="0" toLane="0" via=":r_0_0" dir="s" state="M"/>
    <connection from="rr_r" to="r_c" fromLane="1" toLane="1" via=":r_0_1" dir="s" state="M"/>
    <connection from="t_c" to="c_l" fromLane="0" toLane="0" via=":c_0_0" tl="c" linkIndex="0" dir="r" state="O"/>
    <connection from="t_c" to="c_b" fromLane="0" toLane="0" via=":c_1_0" tl="c" linkIndex="1" dir="s" state="O"/>
    <connection from="t_c" to="c_b" fromLane="1" toLane="1" via=":c_1_1" tl="c" linkIndex="2" dir="s" state="O"/>
    <connection from="t_c" to="c_r" fromLane="1" toLane="1" via=":c_3_0" tl="c" linkIndex="3" dir="l" state="o"/>
    <connection from="tt_t" to="t_c" fromLane="0" toLane="0" via=":t_0_0" dir="s" state="M"/>
    <connection from="tt_t" to="t_c" fromLane="1" toLane="1" via=":t_0_1" dir="s" state="M"/>

    <connection from=":b_0" to="b_bb" fromLane="0" toLane="0" dir="s" state="M"/>
    <connection from=":b_0" to="b_bb" fromLane="1" toLane="1" dir="s" state="M"/>
    <connection from=":b_2" to="b_c" fromLane="0" toLane="0" dir="s" state="M"/>
    <connection from=":b_2" to="b_c" fromLane="1" toLane="1" dir="s" state="M"/>
    <connection from=":c_0" to="c_l" fromLane="0" toLane="0" dir="r" state="M"/>
    <connection from=":c_1" to="c_b" fromLane="0" toLane="0" dir="s" state="M"/>
    <connection from=":c_1" to="c_b" fromLane="1" toLane="1" dir="s" state="M"/>
    <connection from=":c_3" to="c_r" fromLane="0" toLane="1" via=":c_16_0" dir="l" state="m"/>
    <connection from=":c_16" to="c_r" fromLane="0" toLane="1" dir="l" state="M"/>
    <connection from=":c_4" to="c_t" fromLane="0" toLane="0" dir="r" state="M"/>
    <connection from=":c_5" to="c_l" fromLane="0" toLane="0" dir="s" state="M"/>
    <connection from=":c_5" to="c_l" fromLane="1" toLane="1" dir="s" state="M"/>
    <connection from=":c_7" to="c_b" fromLane="0" toLane="1" via=":c_17_0" dir="l" state="m"/>
    <connection from=":c_17" to="c_b" fromLane="0" toLane="1" dir="l" state="M"/>
    <connection from=":c_8" to="c_r" fromLane="0" toLane="0" dir="r" state="M"/>
    <connection from=":c_9" to="c_t" fromLane="0" toLane="0" dir="s" state="M"/>
    <connection from=":c_9" to="c_t" fromLane="1" toLane="1" dir="s" state="M"/>
    <connection from=":c_11" to="c_l" fromLane="0" toLane="1" via=":c_18_0" dir="l" state="m"/>
    <connection from=":c_18" to="c_l" fromLane="0" toLane="1" dir="l" state="M"/>
    <connection from=":c_12" to="c_b" fromLane="0" toLane="0" dir="r" state="M"/>
    <connection from=":c_13" to="c_r" fromLane="0" toLane="0" dir="s" state="M"/>
    <connection from=":c_13" to="c_r" fromLane="1" toLane="1" dir="s" state="M"/>
    <connection from=":c_15" to="c_t" fromLane="0" toLane="1" via=":c_19_0" dir="l" state="m"/>
    <connection from=":c_19" to="c_t" fromLane="0" toLane="1" dir="l" state="M"/>
    <connection from=":l_0" to="l_ll" fromLane="0" toLane="0" dir="s" state="M"/>
    <connection from=":l_0" to="l_ll" fromLane="1" toLane="1" dir="s" state="M"/>
    <connection from=":l_2" to="l_c" fromLane="0" toLane="0" dir="s" state="M"/>
    <connection from=":l_2" to="l_c" fromLane="1" toLane="1" dir="s" state="M"/>
    <connection from=":r_0" to="r_c" fromLane="0" toLane="0" dir="s" state="M"/>
    <connection from=":r_0" to="r_c" fromLane="1" toLane="1" dir="s" state="M"/>
    <connection from=":r_2" to="r_rr" fromLane="0" toLane="0" dir="s" state="M"/>
    <connection from=":r_2" to="r_rr" fromLane="1" toLane="1" dir="s" state="M"/>
    <connection from=":t_0" to="t_c" fromLane="0" toLane="0" dir="s" state="M"/>
    <connection from=":t_0" to="t_c" fromLane="1" toLane="1" dir="s" state="M"/>
    <connection from=":t_2" to="t_tt" fromLane="0" toLane="0" dir="s" state="M"/>
    <connection from=":t_2" to="t_tt" fromLane="1" toLane="1" dir="s" state="M"/>

</net>
