<configuration>
    <input>
       <net-file value="rulebase.net.xml"/>
       <route-files value="reinforcement.rou.xml"/>
    </input>
</configuration>