<net xmlns:xsi="http://www.w3.org/2001/XMLSchema-instance" version="1.6" junctionCornerDetail="5" limitTurnSpeed="5.50" xsi:noNamespaceSchemaLocation="http://sumo.dlr.de/xsd/net_file.xsd">

    <location netOffset="0.00,0.00" convBoundary="-200.00,-200.00,200.00,200.00" origBoundary="10000000000.00,10000000000.00,-10000000000.00,-10000000000.00" projParameter="!" />

    <edge id=":c_0" function="internal">
        <lane id=":c_0_0" index="0" speed="7.33" length="11.73" shape="-8.00,13.60 -8.35,9.75 -9.40,7.00 -11.15,5.35 -13.60,4.80" />
    </edge>
    <edge id=":c_1" function="internal">
        <lane id=":c_1_0" index="0" speed="13.89" length="27.43" shape="-8.00,13.60 -7.50,4.98 -6.40,-1.39 -5.30,-7.06 -4.80,-13.60" />
        <lane id=":c_1_1" index="1" speed="13.89" length="27.43" shape="-4.80,13.60 -4.30,4.98 -3.20,-1.39 -2.10,-7.06 -1.60,-13.60" />
    </edge>
    <edge id=":c_3" function="internal">
        <lane id=":c_3_0" index="0" speed="10.36" length="9.99" shape="-1.60,13.60 -0.65,6.95 1.04,4.14" />
    </edge>
    <edge id=":c_16" function="internal">
        <lane id=":c_16_0" index="0" speed="10.36" length="14.52" shape="1.04,4.14 2.20,2.20 6.95,-0.65 13.60,-1.60" />
    </edge>
    <edge id=":c_4" function="internal">
        <lane id=":c_4_0" index="0" speed="7.33" length="11.73" shape="13.60,8.00 9.75,8.35 7.00,9.40 5.35,11.15 4.80,13.60" />
    </edge>
    <edge id=":c_5" function="internal">
        <lane id=":c_5_0" index="0" speed="13.89" length="27.43" shape="13.60,8.00 4.98,7.50 -1.39,6.40 -7.06,5.30 -13.60,4.80" />
        <lane id=":c_5_1" index="1" speed="13.89" length="27.43" shape="13.60,4.80 4.98,4.30 -1.39,3.20 -7.06,2.10 -13.60,1.60" />
    </edge>
    <edge id=":c_7" function="internal">
        <lane id=":c_7_0" index="0" speed="10.36" length="9.99" shape="13.60,1.60 6.95,0.65 4.14,-1.04" />
    </edge>
    <edge id=":c_17" function="internal">
        <lane id=":c_17_0" index="0" speed="10.36" length="14.52" shape="4.14,-1.04 2.20,-2.20 -0.65,-6.95 -1.60,-13.60" />
    </edge>
    <edge id=":c_8" function="internal">
        <lane id=":c_8_0" index="0" speed="7.33" length="11.73" shape="8.00,-13.60 8.35,-9.75 9.40,-7.00 11.15,-5.35 13.60,-4.80" />
    </edge>
    <edge id=":c_9" function="internal">
        <lane id=":c_9_0" index="0" speed="13.89" length="27.43" shape="8.00,-13.60 7.50,-4.98 6.40,1.39 5.30,7.06 4.80,13.60" />
        <lane id=":c_9_1" index="1" speed="13.89" length="27.43" shape="4.80,-13.60 4.30,-4.98 3.20,1.39 2.10,7.06 1.60,13.60" />
    </edge>
    <edge id=":c_11" function="internal">
        <lane id=":c_11_0" index="0" speed="10.36" length="9.99" shape="1.60,-13.60 0.65,-6.95 -1.04,-4.14" />
    </edge>
    <edge id=":c_18" function="internal">
        <lane id=":c_18_0" index="0" speed="10.36" length="14.52" shape="-1.04,-4.14 -2.20,-2.20 -6.95,0.65 -13.60,1.60" />
    </edge>
    <edge id=":c_12" function="internal">
        <lane id=":c_12_0" index="0" speed="7.33" length="11.73" shape="-13.60,-8.00 -9.75,-8.35 -7.00,-9.40 -5.35,-11.15 -4.80,-13.60" />
    </edge>
    <edge id=":c_13" function="internal">
        <lane id=":c_13_0" index="0" speed="13.89" length="27.43" shape="-13.60,-8.00 -4.98,-7.50 1.39,-6.40 7.06,-5.30 13.60,-4.80" />
        <lane id=":c_13_1" index="1" speed="13.89" length="27.43" shape="-13.60,-4.80 -4.98,-4.30 1.39,-3.20 7.06,-2.10 13.60,-1.60" />
    </edge>
    <edge id=":c_15" function="internal">
        <lane id=":c_15_0" index="0" speed="10.36" length="9.99" shape="-13.60,-1.60 -6.95,-0.65 -4.14,1.04" />
    </edge>
    <edge id=":c_19" function="internal">
        <lane id=":c_19_0" index="0" speed="10.36" length="14.52" shape="-4.14,1.04 -2.20,2.20 0.65,6.95 1.60,13.60" />
    </edge>

    <edge id="b_c" from="b" to="c" priority="-1">
        <lane id="b_c_0" index="0" speed="13.89" length="186.40" shape="8.00,-200.00 8.00,-13.60" />
        <lane id="b_c_1" index="1" speed="13.89" length="186.40" shape="4.80,-200.00 4.80,-13.60" />
        <lane id="b_c_2" index="2" speed="13.89" length="186.40" shape="1.60,-200.00 1.60,-13.60" />
    </edge>
    <edge id="c_b" from="c" to="b" priority="-1">
        <lane id="c_b_0" index="0" speed="13.89" length="186.40" shape="-4.80,-13.60 -4.80,-200.00" />
        <lane id="c_b_1" index="1" speed="13.89" length="186.40" shape="-1.60,-13.60 -1.60,-200.00" />
    </edge>
    <edge id="c_l" from="c" to="l" priority="-1">
        <lane id="c_l_0" index="0" speed="13.89" length="186.40" shape="-13.60,4.80 -200.00,4.80" />
        <lane id="c_l_1" index="1" speed="13.89" length="186.40" shape="-13.60,1.60 -200.00,1.60" />
    </edge>
    <edge id="c_r" from="c" to="r" priority="-1">
        <lane id="c_r_0" index="0" speed="13.89" length="186.40" shape="13.60,-4.80 200.00,-4.80" />
        <lane id="c_r_1" index="1" speed="13.89" length="186.40" shape="13.60,-1.60 200.00,-1.60" />
    </edge>
    <edge id="c_t" from="c" to="t" priority="-1">
        <lane id="c_t_0" index="0" speed="13.89" length="186.40" shape="4.80,13.60 4.80,200.00" />
        <lane id="c_t_1" index="1" speed="13.89" length="186.40" shape="1.60,13.60 1.60,200.00" />
    </edge>
    <edge id="l_c" from="l" to="c" priority="-1">
        <lane id="l_c_0" index="0" speed="13.89" length="186.40" shape="-200.00,-8.00 -13.60,-8.00" />
        <lane id="l_c_1" index="1" speed="13.89" length="186.40" shape="-200.00,-4.80 -13.60,-4.80" />
        <lane id="l_c_2" index="2" speed="13.89" length="186.40" shape="-200.00,-1.60 -13.60,-1.60" />
    </edge>
    <edge id="r_c" from="r" to="c" priority="-1">
        <lane id="r_c_0" index="0" speed="13.89" length="186.40" shape="200.00,8.00 13.60,8.00" />
        <lane id="r_c_1" index="1" speed="13.89" length="186.40" shape="200.00,4.80 13.60,4.80" />
        <lane id="r_c_2" index="2" speed="13.89" length="186.40" shape="200.00,1.60 13.60,1.60" />
    </edge>
    <edge id="t_c" from="t" to="c" priority="-1">
        <lane id="t_c_0" index="0" speed="13.89" length="186.40" shape="-8.00,200.00 -8.00,13.60" />
        <lane id="t_c_1" index="1" speed="13.89" length="186.40" shape="-4.80,200.00 -4.80,13.60" />
        <lane id="t_c_2" index="2" speed="13.89" length="186.40" shape="-1.60,200.00 -1.60,13.60" />
    </edge>

    <tlLogic id="c" type="static" programID="1" offset="0">
        <phase duration="33" state="GGGgrrrrGGGgrrrr" index="0" /> 
        <phase duration="3" state="yyygrrrryyygrrrr" index="1" />
        <phase duration="6" state="rrrGrrrrrrrGrrrr" index="2" />
        <phase duration="3" state="rrryrrrrrrryrrrr" index="3" />
        <phase duration="33" state="rrrrGGGgrrrrGGGg" index="4" />
        <phase duration="3" state="rrrryyygrrrryyyg" index="5" />
        <phase duration="6" state="rrrrrrrGrrrrrrrG" index="6" />
        <phase duration="3" state="rrrrrrryrrrrrrry" index="7" />
    </tlLogic>

    <junction id="b" type="dead_end" x="0.00" y="-200.00" incLanes="c_b_0 c_b_1" intLanes="" shape="0.00,-200.00 -6.40,-200.00 0.00,-200.00" />
    <junction id="c" type="traffic_light" x="0.00" y="0.00" incLanes="t_c_0 t_c_1 t_c_2 r_c_0 r_c_1 r_c_2 b_c_0 b_c_1 b_c_2 l_c_0 l_c_1 l_c_2" intLanes=":c_0_0 :c_1_0 :c_1_1 :c_16_0 :c_4_0 :c_5_0 :c_5_1 :c_17_0 :c_8_0 :c_9_0 :c_9_1 :c_18_0 :c_12_0 :c_13_0 :c_13_1 :c_19_0" shape="-9.60,13.60 6.40,13.60 7.20,11.38 8.20,10.60 9.60,10.04 11.40,9.71 13.60,9.60 13.60,-6.40 11.38,-7.20 10.60,-8.20 10.04,-9.60 9.71,-11.40 9.60,-13.60 -6.40,-13.60 -7.20,-11.38 -8.20,-10.60 -9.60,-10.04 -11.40,-9.71 -13.60,-9.60 -13.60,6.40 -11.38,7.20 -10.60,8.20 -10.04,9.60 -9.71,11.40">
        <request index="0" response="0000000000000000" foes="0000000001100000" cont="0" />
        <request index="1" response="1000000010000000" foes="1111100011100000" cont="0" />
        <request index="2" response="1000000010000000" foes="1111100011100000" cont="0" />
        <request index="3" response="1000011010000000" foes="1110011011100000" cont="1" />
        <request index="4" response="0000011000000000" foes="0000011000000000" cont="0" />
        <request index="5" response="0000111000001111" foes="1000111000001111" cont="0" />
        <request index="6" response="0000111000001111" foes="1000111000001111" cont="0" />
        <request index="7" response="0110111000001110" foes="0110111000001110" cont="1" />
        <request index="8" response="0000000000000000" foes="0110000000000000" cont="0" />
        <request index="9" response="1000000010000000" foes="1110000011111000" cont="0" />
        <request index="10" response="1000000010000000" foes="1110000011111000" cont="0" />
        <request index="11" response="1000000010000110" foes="1110000011100110" cont="1" />
        <request index="12" response="0000000000000110" foes="0000000000000110" cont="0" />
        <request index="13" response="0000111100001110" foes="0000111110001110" cont="0" />
        <request index="14" response="0000111100001110" foes="0000111110001110" cont="0" />
        <request index="15" response="0000111001101110" foes="0000111001101110" cont="1" />
    </junction>
    <junction id="l" type="dead_end" x="-200.00" y="0.00" incLanes="c_l_0 c_l_1" intLanes="" shape="-200.00,0.00 -200.00,6.40 -200.00,0.00" />
    <junction id="r" type="dead_end" x="200.00" y="0.00" incLanes="c_r_0 c_r_1" intLanes="" shape="200.00,0.00 200.00,-6.40 200.00,0.00" />
    <junction id="t" type="dead_end" x="0.00" y="200.00" incLanes="c_t_0 c_t_1" intLanes="" shape="0.00,200.00 6.40,200.00 0.00,200.00" />

    <junction id=":c_16_0" type="internal" x="1.04" y="4.14" incLanes=":c_3_0 b_c_0 b_c_1" intLanes=":c_5_0 :c_5_1 :c_7_0 :c_8_0 :c_9_0 :c_9_1 :c_13_0 :c_13_1 :c_15_0" />
    <junction id=":c_17_0" type="internal" x="4.14" y="-1.04" incLanes=":c_7_0 l_c_0 l_c_1" intLanes=":c_1_0 :c_1_1 :c_3_0 :c_9_0 :c_9_1 :c_11_0 :c_12_0 :c_13_0 :c_13_1" />
    <junction id=":c_18_0" type="internal" x="-1.04" y="-4.14" incLanes=":c_11_0 t_c_0 t_c_1" intLanes=":c_0_0 :c_1_0 :c_1_1 :c_5_0 :c_5_1 :c_7_0 :c_13_0 :c_13_1 :c_15_0" />
    <junction id=":c_19_0" type="internal" x="-4.14" y="1.04" incLanes=":c_15_0 r_c_0 r_c_1" intLanes=":c_1_0 :c_1_1 :c_3_0 :c_4_0 :c_5_0 :c_5_1 :c_9_0 :c_9_1 :c_11_0" />

    <connection from="b_c" to="c_r" fromLane="0" toLane="0" via=":c_8_0" tl="c" linkIndex="8" dir="r" state="O" />
    <connection from="b_c" to="c_t" fromLane="0" toLane="0" via=":c_9_0" tl="c" linkIndex="9" dir="s" state="O" />
    <connection from="b_c" to="c_t" fromLane="1" toLane="1" via=":c_9_1" tl="c" linkIndex="10" dir="s" state="O" />
    <connection from="b_c" to="c_l" fromLane="2" toLane="1" via=":c_11_0" tl="c" linkIndex="11" dir="l" state="o" />
    <connection from="l_c" to="c_b" fromLane="0" toLane="0" via=":c_12_0" tl="c" linkIndex="12" dir="r" state="o" />
    <connection from="l_c" to="c_r" fromLane="0" toLane="0" via=":c_13_0" tl="c" linkIndex="13" dir="s" state="o" />
    <connection from="l_c" to="c_r" fromLane="1" toLane="1" via=":c_13_1" tl="c" linkIndex="14" dir="s" state="o" />
    <connection from="l_c" to="c_t" fromLane="2" toLane="1" via=":c_15_0" tl="c" linkIndex="15" dir="l" state="o" />
    <connection from="r_c" to="c_t" fromLane="0" toLane="0" via=":c_4_0" tl="c" linkIndex="4" dir="r" state="o" />
    <connection from="r_c" to="c_l" fromLane="0" toLane="0" via=":c_5_0" tl="c" linkIndex="5" dir="s" state="o" />
    <connection from="r_c" to="c_l" fromLane="1" toLane="1" via=":c_5_1" tl="c" linkIndex="6" dir="s" state="o" />
    <connection from="r_c" to="c_b" fromLane="2" toLane="1" via=":c_7_0" tl="c" linkIndex="7" dir="l" state="o" />
    <connection from="t_c" to="c_l" fromLane="0" toLane="0" via=":c_0_0" tl="c" linkIndex="0" dir="r" state="O" />
    <connection from="t_c" to="c_b" fromLane="0" toLane="0" via=":c_1_0" tl="c" linkIndex="1" dir="s" state="O" />
    <connection from="t_c" to="c_b" fromLane="1" toLane="1" via=":c_1_1" tl="c" linkIndex="2" dir="s" state="O" />
    <connection from="t_c" to="c_r" fromLane="2" toLane="1" via=":c_3_0" tl="c" linkIndex="3" dir="l" state="o" />

    <connection from=":c_0" to="c_l" fromLane="0" toLane="0" dir="r" state="M" />
    <connection from=":c_1" to="c_b" fromLane="0" toLane="0" dir="s" state="M" />
    <connection from=":c_1" to="c_b" fromLane="1" toLane="1" dir="s" state="M" />
    <connection from=":c_3" to="c_r" fromLane="0" toLane="1" via=":c_16_0" dir="l" state="m" />
    <connection from=":c_16" to="c_r" fromLane="0" toLane="1" dir="l" state="M" />
    <connection from=":c_4" to="c_t" fromLane="0" toLane="0" dir="r" state="M" />
    <connection from=":c_5" to="c_l" fromLane="0" toLane="0" dir="s" state="M" />
    <connection from=":c_5" to="c_l" fromLane="1" toLane="1" dir="s" state="M" />
    <connection from=":c_7" to="c_b" fromLane="0" toLane="1" via=":c_17_0" dir="l" state="m" />
    <connection from=":c_17" to="c_b" fromLane="0" toLane="1" dir="l" state="M" />
    <connection from=":c_8" to="c_r" fromLane="0" toLane="0" dir="r" state="M" />
    <connection from=":c_9" to="c_t" fromLane="0" toLane="0" dir="s" state="M" />
    <connection from=":c_9" to="c_t" fromLane="1" toLane="1" dir="s" state="M" />
    <connection from=":c_11" to="c_l" fromLane="0" toLane="1" via=":c_18_0" dir="l" state="m" />
    <connection from=":c_18" to="c_l" fromLane="0" toLane="1" dir="l" state="M" />
    <connection from=":c_12" to="c_b" fromLane="0" toLane="0" dir="r" state="M" />
    <connection from=":c_13" to="c_r" fromLane="0" toLane="0" dir="s" state="M" />
    <connection from=":c_13" to="c_r" fromLane="1" toLane="1" dir="s" state="M" />
    <connection from=":c_15" to="c_t" fromLane="0" toLane="1" via=":c_19_0" dir="l" state="m" />
    <connection from=":c_19" to="c_t" fromLane="0" toLane="1" dir="l" state="M" />

</net>