<?xml version="1.0" encoding="UTF-8"?>

<!-- generated on 12/05/20 21:39:14 by Eclipse SUMO netedit Version 1.6.0
<configuration xmlns:xsi="http://www.w3.org/2001/XMLSchema-instance" xsi:noNamespaceSchemaLocation="http://sumo.dlr.de/xsd/netconvertConfiguration.xsd">

    <input>
        <sumo-net-file value="C:\Users\arai-lab\Documents\programming\study\iee\double_transaction\four\nine.net.xml"/>
    </input>

    <output>
        <output-file value="C:\Users\arai-lab\Documents\programming\study\iee\double_transaction\four\nine.net.xml"/>
    </output>

    <processing>
        <geometry.min-radius.fix.railways value="false"/>
        <geometry.max-grade.fix value="false"/>
        <offset.disable-normalization value="true"/>
        <lefthand value="false"/>
    </processing>

    <junctions>
        <no-turnarounds value="true"/>
        <junctions.corner-detail value="5"/>
        <junctions.limit-turn-speed value="5.5"/>
        <rectangular-lane-cut value="false"/>
    </junctions>

    <pedestrian>
        <walkingareas value="false"/>
    </pedestrian>

    <report>
        <aggregate-warnings value="5"/>
    </report>

</configuration>
-->

<net version="1.6" junctionCornerDetail="5" limitTurnSpeed="5.50" xmlns:xsi="http://www.w3.org/2001/XMLSchema-instance" xsi:noNamespaceSchemaLocation="http://sumo.dlr.de/xsd/net_file.xsd">

    <location netOffset="0.00,0.00" convBoundary="-200.00,-1000.00,1000.00,200.00" origBoundary="-10000000000.00,-10000000000.00,10000000000.00,10000000000.00" projParameter="!"/>

    <edge id=":c1_0" function="internal">
        <lane id=":c1_0_0" index="0" speed="6.51" length="9.03" shape="-4.80,10.40 -5.15,7.95 -6.20,6.20 -7.95,5.15 -10.40,4.80"/>
    </edge>
    <edge id=":c1_1" function="internal">
        <lane id=":c1_1_0" index="0" speed="13.89" length="20.80" shape="-4.80,10.40 -4.80,-10.40"/>
        <lane id=":c1_1_1" index="1" speed="13.89" length="20.80" shape="-1.60,10.40 -1.60,-10.40"/>
    </edge>
    <edge id=":c1_3" function="internal">
        <lane id=":c1_3_0" index="0" speed="9.26" length="6.96" shape="-1.60,10.40 -0.85,5.15 -0.00,3.73"/>
    </edge>
    <edge id=":c1_16" function="internal">
        <lane id=":c1_16_0" index="0" speed="9.26" length="12.40" shape="-0.00,3.73 1.40,1.40 5.15,-0.85 10.40,-1.60"/>
    </edge>
    <edge id=":c1_4" function="internal">
        <lane id=":c1_4_0" index="0" speed="6.51" length="9.03" shape="10.40,4.80 7.95,5.15 6.20,6.20 5.15,7.95 4.80,10.40"/>
    </edge>
    <edge id=":c1_5" function="internal">
        <lane id=":c1_5_0" index="0" speed="13.89" length="20.80" shape="10.40,4.80 -10.40,4.80"/>
        <lane id=":c1_5_1" index="1" speed="13.89" length="20.80" shape="10.40,1.60 -10.40,1.60"/>
    </edge>
    <edge id=":c1_7" function="internal">
        <lane id=":c1_7_0" index="0" speed="9.26" length="6.96" shape="10.40,1.60 5.15,0.85 3.73,0.00"/>
    </edge>
    <edge id=":c1_17" function="internal">
        <lane id=":c1_17_0" index="0" speed="9.26" length="12.40" shape="3.73,0.00 1.40,-1.40 -0.85,-5.15 -1.60,-10.40"/>
    </edge>
    <edge id=":c1_8" function="internal">
        <lane id=":c1_8_0" index="0" speed="6.51" length="9.03" shape="4.80,-10.40 5.15,-7.95 6.20,-6.20 7.95,-5.15 10.40,-4.80"/>
    </edge>
    <edge id=":c1_9" function="internal">
        <lane id=":c1_9_0" index="0" speed="13.89" length="20.80" shape="4.80,-10.40 4.80,10.40"/>
        <lane id=":c1_9_1" index="1" speed="13.89" length="20.80" shape="1.60,-10.40 1.60,10.40"/>
    </edge>
    <edge id=":c1_11" function="internal">
        <lane id=":c1_11_0" index="0" speed="9.26" length="6.96" shape="1.60,-10.40 0.85,-5.15 0.00,-3.73"/>
    </edge>
    <edge id=":c1_18" function="internal">
        <lane id=":c1_18_0" index="0" speed="9.26" length="12.40" shape="0.00,-3.73 -1.40,-1.40 -5.15,0.85 -10.40,1.60"/>
    </edge>
    <edge id=":c1_12" function="internal">
        <lane id=":c1_12_0" index="0" speed="6.51" length="9.03" shape="-10.40,-4.80 -7.95,-5.15 -6.20,-6.20 -5.15,-7.95 -4.80,-10.40"/>
    </edge>
    <edge id=":c1_13" function="internal">
        <lane id=":c1_13_0" index="0" speed="13.89" length="20.80" shape="-10.40,-4.80 10.40,-4.80"/>
        <lane id=":c1_13_1" index="1" speed="13.89" length="20.80" shape="-10.40,-1.60 10.40,-1.60"/>
    </edge>
    <edge id=":c1_15" function="internal">
        <lane id=":c1_15_0" index="0" speed="9.26" length="6.96" shape="-10.40,-1.60 -5.15,-0.85 -3.73,0.00"/>
    </edge>
    <edge id=":c1_19" function="internal">
        <lane id=":c1_19_0" index="0" speed="9.26" length="12.40" shape="-3.73,0.00 -1.40,1.40 0.85,5.15 1.60,10.40"/>
    </edge>
    <edge id=":c2_0" function="internal">
        <lane id=":c2_0_0" index="0" speed="6.51" length="9.03" shape="395.20,10.40 394.85,7.95 393.80,6.20 392.05,5.15 389.60,4.80"/>
    </edge>
    <edge id=":c2_1" function="internal">
        <lane id=":c2_1_0" index="0" speed="13.89" length="20.80" shape="395.20,10.40 395.20,-10.40"/>
        <lane id=":c2_1_1" index="1" speed="13.89" length="20.80" shape="398.40,10.40 398.40,-10.40"/>
    </edge>
    <edge id=":c2_3" function="internal">
        <lane id=":c2_3_0" index="0" speed="9.26" length="6.96" shape="398.40,10.40 399.15,5.15 400.00,3.73"/>
    </edge>
    <edge id=":c2_16" function="internal">
        <lane id=":c2_16_0" index="0" speed="9.26" length="12.40" shape="400.00,3.73 401.40,1.40 405.15,-0.85 410.40,-1.60"/>
    </edge>
    <edge id=":c2_4" function="internal">
        <lane id=":c2_4_0" index="0" speed="6.51" length="9.03" shape="410.40,4.80 407.95,5.15 406.20,6.20 405.15,7.95 404.80,10.40"/>
    </edge>
    <edge id=":c2_5" function="internal">
        <lane id=":c2_5_0" index="0" speed="13.89" length="20.80" shape="410.40,4.80 389.60,4.80"/>
        <lane id=":c2_5_1" index="1" speed="13.89" length="20.80" shape="410.40,1.60 389.60,1.60"/>
    </edge>
    <edge id=":c2_7" function="internal">
        <lane id=":c2_7_0" index="0" speed="9.26" length="6.96" shape="410.40,1.60 405.15,0.85 403.73,-0.00"/>
    </edge>
    <edge id=":c2_17" function="internal">
        <lane id=":c2_17_0" index="0" speed="9.26" length="12.40" shape="403.73,-0.00 401.40,-1.40 399.15,-5.15 398.40,-10.40"/>
    </edge>
    <edge id=":c2_8" function="internal">
        <lane id=":c2_8_0" index="0" speed="6.51" length="9.03" shape="404.80,-10.40 405.15,-7.95 406.20,-6.20 407.95,-5.15 410.40,-4.80"/>
    </edge>
    <edge id=":c2_9" function="internal">
        <lane id=":c2_9_0" index="0" speed="13.89" length="20.80" shape="404.80,-10.40 404.80,10.40"/>
        <lane id=":c2_9_1" index="1" speed="13.89" length="20.80" shape="401.60,-10.40 401.60,10.40"/>
    </edge>
    <edge id=":c2_11" function="internal">
        <lane id=":c2_11_0" index="0" speed="9.26" length="6.96" shape="401.60,-10.40 400.85,-5.15 400.00,-3.73"/>
    </edge>
    <edge id=":c2_18" function="internal">
        <lane id=":c2_18_0" index="0" speed="9.26" length="12.40" shape="400.00,-3.73 398.60,-1.40 394.85,0.85 389.60,1.60"/>
    </edge>
    <edge id=":c2_12" function="internal">
        <lane id=":c2_12_0" index="0" speed="6.51" length="9.03" shape="389.60,-4.80 392.05,-5.15 393.80,-6.20 394.85,-7.95 395.20,-10.40"/>
    </edge>
    <edge id=":c2_13" function="internal">
        <lane id=":c2_13_0" index="0" speed="13.89" length="20.80" shape="389.60,-4.80 410.40,-4.80"/>
        <lane id=":c2_13_1" index="1" speed="13.89" length="20.80" shape="389.60,-1.60 410.40,-1.60"/>
    </edge>
    <edge id=":c2_15" function="internal">
        <lane id=":c2_15_0" index="0" speed="9.26" length="6.96" shape="389.60,-1.60 394.85,-0.85 396.27,0.00"/>
    </edge>
    <edge id=":c2_19" function="internal">
        <lane id=":c2_19_0" index="0" speed="9.26" length="12.40" shape="396.27,0.00 398.60,1.40 400.85,5.15 401.60,10.40"/>
    </edge>
    <edge id=":c3_0" function="internal">
        <lane id=":c3_0_0" index="0" speed="6.51" length="9.03" shape="795.20,10.40 794.85,7.95 793.80,6.20 792.05,5.15 789.60,4.80"/>
    </edge>
    <edge id=":c3_1" function="internal">
        <lane id=":c3_1_0" index="0" speed="13.89" length="20.80" shape="795.20,10.40 795.20,-10.40"/>
        <lane id=":c3_1_1" index="1" speed="13.89" length="20.80" shape="798.40,10.40 798.40,-10.40"/>
    </edge>
    <edge id=":c3_3" function="internal">
        <lane id=":c3_3_0" index="0" speed="9.26" length="6.96" shape="798.40,10.40 799.15,5.15 800.00,3.73"/>
    </edge>
    <edge id=":c3_16" function="internal">
        <lane id=":c3_16_0" index="0" speed="9.26" length="12.40" shape="800.00,3.73 801.40,1.40 805.15,-0.85 810.40,-1.60"/>
    </edge>
    <edge id=":c3_4" function="internal">
        <lane id=":c3_4_0" index="0" speed="6.51" length="9.03" shape="810.40,4.80 807.95,5.15 806.20,6.20 805.15,7.95 804.80,10.40"/>
    </edge>
    <edge id=":c3_5" function="internal">
        <lane id=":c3_5_0" index="0" speed="13.89" length="20.80" shape="810.40,4.80 789.60,4.80"/>
        <lane id=":c3_5_1" index="1" speed="13.89" length="20.80" shape="810.40,1.60 789.60,1.60"/>
    </edge>
    <edge id=":c3_7" function="internal">
        <lane id=":c3_7_0" index="0" speed="9.26" length="6.96" shape="810.40,1.60 805.15,0.85 803.73,0.00"/>
    </edge>
    <edge id=":c3_17" function="internal">
        <lane id=":c3_17_0" index="0" speed="9.26" length="12.40" shape="803.73,0.00 801.40,-1.40 799.15,-5.15 798.40,-10.40"/>
    </edge>
    <edge id=":c3_8" function="internal">
        <lane id=":c3_8_0" index="0" speed="6.51" length="9.03" shape="804.80,-10.40 805.15,-7.95 806.20,-6.20 807.95,-5.15 810.40,-4.80"/>
    </edge>
    <edge id=":c3_9" function="internal">
        <lane id=":c3_9_0" index="0" speed="13.89" length="20.80" shape="804.80,-10.40 804.80,10.40"/>
        <lane id=":c3_9_1" index="1" speed="13.89" length="20.80" shape="801.60,-10.40 801.60,10.40"/>
    </edge>
    <edge id=":c3_11" function="internal">
        <lane id=":c3_11_0" index="0" speed="9.26" length="6.96" shape="801.60,-10.40 800.85,-5.15 800.00,-3.73"/>
    </edge>
    <edge id=":c3_18" function="internal">
        <lane id=":c3_18_0" index="0" speed="9.26" length="12.40" shape="800.00,-3.73 798.60,-1.40 794.85,0.85 789.60,1.60"/>
    </edge>
    <edge id=":c3_12" function="internal">
        <lane id=":c3_12_0" index="0" speed="6.51" length="9.03" shape="789.60,-4.80 792.05,-5.15 793.80,-6.20 794.85,-7.95 795.20,-10.40"/>
    </edge>
    <edge id=":c3_13" function="internal">
        <lane id=":c3_13_0" index="0" speed="13.89" length="20.80" shape="789.60,-4.80 810.40,-4.80"/>
        <lane id=":c3_13_1" index="1" speed="13.89" length="20.80" shape="789.60,-1.60 810.40,-1.60"/>
    </edge>
    <edge id=":c3_15" function="internal">
        <lane id=":c3_15_0" index="0" speed="9.26" length="6.96" shape="789.60,-1.60 794.85,-0.85 796.27,-0.00"/>
    </edge>
    <edge id=":c3_19" function="internal">
        <lane id=":c3_19_0" index="0" speed="9.26" length="12.40" shape="796.27,-0.00 798.60,1.40 800.85,5.15 801.60,10.40"/>
    </edge>
    <edge id=":c4_0" function="internal">
        <lane id=":c4_0_0" index="0" speed="6.51" length="9.03" shape="-4.80,-389.60 -5.15,-392.05 -6.20,-393.80 -7.95,-394.85 -10.40,-395.20"/>
    </edge>
    <edge id=":c4_1" function="internal">
        <lane id=":c4_1_0" index="0" speed="13.89" length="20.80" shape="-4.80,-389.60 -4.80,-410.40"/>
        <lane id=":c4_1_1" index="1" speed="13.89" length="20.80" shape="-1.60,-389.60 -1.60,-410.40"/>
    </edge>
    <edge id=":c4_3" function="internal">
        <lane id=":c4_3_0" index="0" speed="9.26" length="6.96" shape="-1.60,-389.60 -0.85,-394.85 0.00,-396.27"/>
    </edge>
    <edge id=":c4_16" function="internal">
        <lane id=":c4_16_0" index="0" speed="9.26" length="12.40" shape="0.00,-396.27 1.40,-398.60 5.15,-400.85 10.40,-401.60"/>
    </edge>
    <edge id=":c4_4" function="internal">
        <lane id=":c4_4_0" index="0" speed="6.51" length="9.03" shape="10.40,-395.20 7.95,-394.85 6.20,-393.80 5.15,-392.05 4.80,-389.60"/>
    </edge>
    <edge id=":c4_5" function="internal">
        <lane id=":c4_5_0" index="0" speed="13.89" length="20.80" shape="10.40,-395.20 -10.40,-395.20"/>
        <lane id=":c4_5_1" index="1" speed="13.89" length="20.80" shape="10.40,-398.40 -10.40,-398.40"/>
    </edge>
    <edge id=":c4_7" function="internal">
        <lane id=":c4_7_0" index="0" speed="9.26" length="6.96" shape="10.40,-398.40 5.15,-399.15 3.73,-400.00"/>
    </edge>
    <edge id=":c4_17" function="internal">
        <lane id=":c4_17_0" index="0" speed="9.26" length="12.40" shape="3.73,-400.00 1.40,-401.40 -0.85,-405.15 -1.60,-410.40"/>
    </edge>
    <edge id=":c4_8" function="internal">
        <lane id=":c4_8_0" index="0" speed="6.51" length="9.03" shape="4.80,-410.40 5.15,-407.95 6.20,-406.20 7.95,-405.15 10.40,-404.80"/>
    </edge>
    <edge id=":c4_9" function="internal">
        <lane id=":c4_9_0" index="0" speed="13.89" length="20.80" shape="4.80,-410.40 4.80,-389.60"/>
        <lane id=":c4_9_1" index="1" speed="13.89" length="20.80" shape="1.60,-410.40 1.60,-389.60"/>
    </edge>
    <edge id=":c4_11" function="internal">
        <lane id=":c4_11_0" index="0" speed="9.26" length="6.96" shape="1.60,-410.40 0.85,-405.15 -0.00,-403.73"/>
    </edge>
    <edge id=":c4_18" function="internal">
        <lane id=":c4_18_0" index="0" speed="9.26" length="12.40" shape="-0.00,-403.73 -1.40,-401.40 -5.15,-399.15 -10.40,-398.40"/>
    </edge>
    <edge id=":c4_12" function="internal">
        <lane id=":c4_12_0" index="0" speed="6.51" length="9.03" shape="-10.40,-404.80 -7.95,-405.15 -6.20,-406.20 -5.15,-407.95 -4.80,-410.40"/>
    </edge>
    <edge id=":c4_13" function="internal">
        <lane id=":c4_13_0" index="0" speed="13.89" length="20.80" shape="-10.40,-404.80 10.40,-404.80"/>
        <lane id=":c4_13_1" index="1" speed="13.89" length="20.80" shape="-10.40,-401.60 10.40,-401.60"/>
    </edge>
    <edge id=":c4_15" function="internal">
        <lane id=":c4_15_0" index="0" speed="9.26" length="6.96" shape="-10.40,-401.60 -5.15,-400.85 -3.73,-400.00"/>
    </edge>
    <edge id=":c4_19" function="internal">
        <lane id=":c4_19_0" index="0" speed="9.26" length="12.40" shape="-3.73,-400.00 -1.40,-398.60 0.85,-394.85 1.60,-389.60"/>
    </edge>
    <edge id=":c5_0" function="internal">
        <lane id=":c5_0_0" index="0" speed="6.51" length="9.03" shape="395.20,-389.60 394.85,-392.05 393.80,-393.80 392.05,-394.85 389.60,-395.20"/>
    </edge>
    <edge id=":c5_1" function="internal">
        <lane id=":c5_1_0" index="0" speed="13.89" length="20.80" shape="395.20,-389.60 395.20,-410.40"/>
        <lane id=":c5_1_1" index="1" speed="13.89" length="20.80" shape="398.40,-389.60 398.40,-410.40"/>
    </edge>
    <edge id=":c5_3" function="internal">
        <lane id=":c5_3_0" index="0" speed="9.26" length="6.96" shape="398.40,-389.60 399.15,-394.85 400.00,-396.27"/>
    </edge>
    <edge id=":c5_16" function="internal">
        <lane id=":c5_16_0" index="0" speed="9.26" length="12.40" shape="400.00,-396.27 401.40,-398.60 405.15,-400.85 410.40,-401.60"/>
    </edge>
    <edge id=":c5_4" function="internal">
        <lane id=":c5_4_0" index="0" speed="6.51" length="9.03" shape="410.40,-395.20 407.95,-394.85 406.20,-393.80 405.15,-392.05 404.80,-389.60"/>
    </edge>
    <edge id=":c5_5" function="internal">
        <lane id=":c5_5_0" index="0" speed="13.89" length="20.80" shape="410.40,-395.20 389.60,-395.20"/>
        <lane id=":c5_5_1" index="1" speed="13.89" length="20.80" shape="410.40,-398.40 389.60,-398.40"/>
    </edge>
    <edge id=":c5_7" function="internal">
        <lane id=":c5_7_0" index="0" speed="9.26" length="6.96" shape="410.40,-398.40 405.15,-399.15 403.73,-400.00"/>
    </edge>
    <edge id=":c5_17" function="internal">
        <lane id=":c5_17_0" index="0" speed="9.26" length="12.40" shape="403.73,-400.00 401.40,-401.40 399.15,-405.15 398.40,-410.40"/>
    </edge>
    <edge id=":c5_8" function="internal">
        <lane id=":c5_8_0" index="0" speed="6.51" length="9.03" shape="404.80,-410.40 405.15,-407.95 406.20,-406.20 407.95,-405.15 410.40,-404.80"/>
    </edge>
    <edge id=":c5_9" function="internal">
        <lane id=":c5_9_0" index="0" speed="13.89" length="20.80" shape="404.80,-410.40 404.80,-389.60"/>
        <lane id=":c5_9_1" index="1" speed="13.89" length="20.80" shape="401.60,-410.40 401.60,-389.60"/>
    </edge>
    <edge id=":c5_11" function="internal">
        <lane id=":c5_11_0" index="0" speed="9.26" length="6.96" shape="401.60,-410.40 400.85,-405.15 400.00,-403.73"/>
    </edge>
    <edge id=":c5_18" function="internal">
        <lane id=":c5_18_0" index="0" speed="9.26" length="12.40" shape="400.00,-403.73 398.60,-401.40 394.85,-399.15 389.60,-398.40"/>
    </edge>
    <edge id=":c5_12" function="internal">
        <lane id=":c5_12_0" index="0" speed="6.51" length="9.03" shape="389.60,-404.80 392.05,-405.15 393.80,-406.20 394.85,-407.95 395.20,-410.40"/>
    </edge>
    <edge id=":c5_13" function="internal">
        <lane id=":c5_13_0" index="0" speed="13.89" length="20.80" shape="389.60,-404.80 410.40,-404.80"/>
        <lane id=":c5_13_1" index="1" speed="13.89" length="20.80" shape="389.60,-401.60 410.40,-401.60"/>
    </edge>
    <edge id=":c5_15" function="internal">
        <lane id=":c5_15_0" index="0" speed="9.26" length="6.96" shape="389.60,-401.60 394.85,-400.85 396.27,-400.00"/>
    </edge>
    <edge id=":c5_19" function="internal">
        <lane id=":c5_19_0" index="0" speed="9.26" length="12.40" shape="396.27,-400.00 398.60,-398.60 400.85,-394.85 401.60,-389.60"/>
    </edge>
    <edge id=":c6_0" function="internal">
        <lane id=":c6_0_0" index="0" speed="6.51" length="9.03" shape="795.20,-389.60 794.85,-392.05 793.80,-393.80 792.05,-394.85 789.60,-395.20"/>
    </edge>
    <edge id=":c6_1" function="internal">
        <lane id=":c6_1_0" index="0" speed="13.89" length="20.80" shape="795.20,-389.60 795.20,-410.40"/>
        <lane id=":c6_1_1" index="1" speed="13.89" length="20.80" shape="798.40,-389.60 798.40,-410.40"/>
    </edge>
    <edge id=":c6_3" function="internal">
        <lane id=":c6_3_0" index="0" speed="9.26" length="6.96" shape="798.40,-389.60 799.15,-394.85 800.00,-396.27"/>
    </edge>
    <edge id=":c6_16" function="internal">
        <lane id=":c6_16_0" index="0" speed="9.26" length="12.40" shape="800.00,-396.27 801.40,-398.60 805.15,-400.85 810.40,-401.60"/>
    </edge>
    <edge id=":c6_4" function="internal">
        <lane id=":c6_4_0" index="0" speed="6.51" length="9.03" shape="810.40,-395.20 807.95,-394.85 806.20,-393.80 805.15,-392.05 804.80,-389.60"/>
    </edge>
    <edge id=":c6_5" function="internal">
        <lane id=":c6_5_0" index="0" speed="13.89" length="20.80" shape="810.40,-395.20 789.60,-395.20"/>
        <lane id=":c6_5_1" index="1" speed="13.89" length="20.80" shape="810.40,-398.40 789.60,-398.40"/>
    </edge>
    <edge id=":c6_7" function="internal">
        <lane id=":c6_7_0" index="0" speed="9.26" length="6.96" shape="810.40,-398.40 805.15,-399.15 803.73,-400.00"/>
    </edge>
    <edge id=":c6_17" function="internal">
        <lane id=":c6_17_0" index="0" speed="9.26" length="12.40" shape="803.73,-400.00 801.40,-401.40 799.15,-405.15 798.40,-410.40"/>
    </edge>
    <edge id=":c6_8" function="internal">
        <lane id=":c6_8_0" index="0" speed="6.51" length="9.03" shape="804.80,-410.40 805.15,-407.95 806.20,-406.20 807.95,-405.15 810.40,-404.80"/>
    </edge>
    <edge id=":c6_9" function="internal">
        <lane id=":c6_9_0" index="0" speed="13.89" length="20.80" shape="804.80,-410.40 804.80,-389.60"/>
        <lane id=":c6_9_1" index="1" speed="13.89" length="20.80" shape="801.60,-410.40 801.60,-389.60"/>
    </edge>
    <edge id=":c6_11" function="internal">
        <lane id=":c6_11_0" index="0" speed="9.26" length="6.96" shape="801.60,-410.40 800.85,-405.15 800.00,-403.73"/>
    </edge>
    <edge id=":c6_18" function="internal">
        <lane id=":c6_18_0" index="0" speed="9.26" length="12.40" shape="800.00,-403.73 798.60,-401.40 794.85,-399.15 789.60,-398.40"/>
    </edge>
    <edge id=":c6_12" function="internal">
        <lane id=":c6_12_0" index="0" speed="6.51" length="9.03" shape="789.60,-404.80 792.05,-405.15 793.80,-406.20 794.85,-407.95 795.20,-410.40"/>
    </edge>
    <edge id=":c6_13" function="internal">
        <lane id=":c6_13_0" index="0" speed="13.89" length="20.80" shape="789.60,-404.80 810.40,-404.80"/>
        <lane id=":c6_13_1" index="1" speed="13.89" length="20.80" shape="789.60,-401.60 810.40,-401.60"/>
    </edge>
    <edge id=":c6_15" function="internal">
        <lane id=":c6_15_0" index="0" speed="9.26" length="6.96" shape="789.60,-401.60 794.85,-400.85 796.27,-400.00"/>
    </edge>
    <edge id=":c6_19" function="internal">
        <lane id=":c6_19_0" index="0" speed="9.26" length="12.40" shape="796.27,-400.00 798.60,-398.60 800.85,-394.85 801.60,-389.60"/>
    </edge>
    <edge id=":c7_0" function="internal">
        <lane id=":c7_0_0" index="0" speed="6.51" length="9.03" shape="-4.80,-789.60 -5.15,-792.05 -6.20,-793.80 -7.95,-794.85 -10.40,-795.20"/>
    </edge>
    <edge id=":c7_1" function="internal">
        <lane id=":c7_1_0" index="0" speed="13.89" length="20.80" shape="-4.80,-789.60 -4.80,-810.40"/>
        <lane id=":c7_1_1" index="1" speed="13.89" length="20.80" shape="-1.60,-789.60 -1.60,-810.40"/>
    </edge>
    <edge id=":c7_3" function="internal">
        <lane id=":c7_3_0" index="0" speed="9.26" length="6.96" shape="-1.60,-789.60 -0.85,-794.85 -0.00,-796.27"/>
    </edge>
    <edge id=":c7_16" function="internal">
        <lane id=":c7_16_0" index="0" speed="9.26" length="12.40" shape="-0.00,-796.27 1.40,-798.60 5.15,-800.85 10.40,-801.60"/>
    </edge>
    <edge id=":c7_4" function="internal">
        <lane id=":c7_4_0" index="0" speed="6.51" length="9.03" shape="10.40,-795.20 7.95,-794.85 6.20,-793.80 5.15,-792.05 4.80,-789.60"/>
    </edge>
    <edge id=":c7_5" function="internal">
        <lane id=":c7_5_0" index="0" speed="13.89" length="20.80" shape="10.40,-795.20 -10.40,-795.20"/>
        <lane id=":c7_5_1" index="1" speed="13.89" length="20.80" shape="10.40,-798.40 -10.40,-798.40"/>
    </edge>
    <edge id=":c7_7" function="internal">
        <lane id=":c7_7_0" index="0" speed="9.26" length="6.96" shape="10.40,-798.40 5.15,-799.15 3.73,-800.00"/>
    </edge>
    <edge id=":c7_17" function="internal">
        <lane id=":c7_17_0" index="0" speed="9.26" length="12.40" shape="3.73,-800.00 1.40,-801.40 -0.85,-805.15 -1.60,-810.40"/>
    </edge>
    <edge id=":c7_8" function="internal">
        <lane id=":c7_8_0" index="0" speed="6.51" length="9.03" shape="4.80,-810.40 5.15,-807.95 6.20,-806.20 7.95,-805.15 10.40,-804.80"/>
    </edge>
    <edge id=":c7_9" function="internal">
        <lane id=":c7_9_0" index="0" speed="13.89" length="20.80" shape="4.80,-810.40 4.80,-789.60"/>
        <lane id=":c7_9_1" index="1" speed="13.89" length="20.80" shape="1.60,-810.40 1.60,-789.60"/>
    </edge>
    <edge id=":c7_11" function="internal">
        <lane id=":c7_11_0" index="0" speed="9.26" length="6.96" shape="1.60,-810.40 0.85,-805.15 0.00,-803.73"/>
    </edge>
    <edge id=":c7_18" function="internal">
        <lane id=":c7_18_0" index="0" speed="9.26" length="12.40" shape="0.00,-803.73 -1.40,-801.40 -5.15,-799.15 -10.40,-798.40"/>
    </edge>
    <edge id=":c7_12" function="internal">
        <lane id=":c7_12_0" index="0" speed="6.51" length="9.03" shape="-10.40,-804.80 -7.95,-805.15 -6.20,-806.20 -5.15,-807.95 -4.80,-810.40"/>
    </edge>
    <edge id=":c7_13" function="internal">
        <lane id=":c7_13_0" index="0" speed="13.89" length="20.80" shape="-10.40,-804.80 10.40,-804.80"/>
        <lane id=":c7_13_1" index="1" speed="13.89" length="20.80" shape="-10.40,-801.60 10.40,-801.60"/>
    </edge>
    <edge id=":c7_15" function="internal">
        <lane id=":c7_15_0" index="0" speed="9.26" length="6.96" shape="-10.40,-801.60 -5.15,-800.85 -3.73,-800.00"/>
    </edge>
    <edge id=":c7_19" function="internal">
        <lane id=":c7_19_0" index="0" speed="9.26" length="12.40" shape="-3.73,-800.00 -1.40,-798.60 0.85,-794.85 1.60,-789.60"/>
    </edge>
    <edge id=":c8_0" function="internal">
        <lane id=":c8_0_0" index="0" speed="6.51" length="9.03" shape="395.20,-789.60 394.85,-792.05 393.80,-793.80 392.05,-794.85 389.60,-795.20"/>
    </edge>
    <edge id=":c8_1" function="internal">
        <lane id=":c8_1_0" index="0" speed="13.89" length="20.80" shape="395.20,-789.60 395.20,-810.40"/>
        <lane id=":c8_1_1" index="1" speed="13.89" length="20.80" shape="398.40,-789.60 398.40,-810.40"/>
    </edge>
    <edge id=":c8_3" function="internal">
        <lane id=":c8_3_0" index="0" speed="9.26" length="6.96" shape="398.40,-789.60 399.15,-794.85 400.00,-796.27"/>
    </edge>
    <edge id=":c8_16" function="internal">
        <lane id=":c8_16_0" index="0" speed="9.26" length="12.40" shape="400.00,-796.27 401.40,-798.60 405.15,-800.85 410.40,-801.60"/>
    </edge>
    <edge id=":c8_4" function="internal">
        <lane id=":c8_4_0" index="0" speed="6.51" length="9.03" shape="410.40,-795.20 407.95,-794.85 406.20,-793.80 405.15,-792.05 404.80,-789.60"/>
    </edge>
    <edge id=":c8_5" function="internal">
        <lane id=":c8_5_0" index="0" speed="13.89" length="20.80" shape="410.40,-795.20 389.60,-795.20"/>
        <lane id=":c8_5_1" index="1" speed="13.89" length="20.80" shape="410.40,-798.40 389.60,-798.40"/>
    </edge>
    <edge id=":c8_7" function="internal">
        <lane id=":c8_7_0" index="0" speed="9.26" length="6.96" shape="410.40,-798.40 405.15,-799.15 403.73,-800.00"/>
    </edge>
    <edge id=":c8_17" function="internal">
        <lane id=":c8_17_0" index="0" speed="9.26" length="12.40" shape="403.73,-800.00 401.40,-801.40 399.15,-805.15 398.40,-810.40"/>
    </edge>
    <edge id=":c8_8" function="internal">
        <lane id=":c8_8_0" index="0" speed="6.51" length="9.03" shape="404.80,-810.40 405.15,-807.95 406.20,-806.20 407.95,-805.15 410.40,-804.80"/>
    </edge>
    <edge id=":c8_9" function="internal">
        <lane id=":c8_9_0" index="0" speed="13.89" length="20.80" shape="404.80,-810.40 404.80,-789.60"/>
        <lane id=":c8_9_1" index="1" speed="13.89" length="20.80" shape="401.60,-810.40 401.60,-789.60"/>
    </edge>
    <edge id=":c8_11" function="internal">
        <lane id=":c8_11_0" index="0" speed="9.26" length="6.96" shape="401.60,-810.40 400.85,-805.15 400.00,-803.73"/>
    </edge>
    <edge id=":c8_18" function="internal">
        <lane id=":c8_18_0" index="0" speed="9.26" length="12.40" shape="400.00,-803.73 398.60,-801.40 394.85,-799.15 389.60,-798.40"/>
    </edge>
    <edge id=":c8_12" function="internal">
        <lane id=":c8_12_0" index="0" speed="6.51" length="9.03" shape="389.60,-804.80 392.05,-805.15 393.80,-806.20 394.85,-807.95 395.20,-810.40"/>
    </edge>
    <edge id=":c8_13" function="internal">
        <lane id=":c8_13_0" index="0" speed="13.89" length="20.80" shape="389.60,-804.80 410.40,-804.80"/>
        <lane id=":c8_13_1" index="1" speed="13.89" length="20.80" shape="389.60,-801.60 410.40,-801.60"/>
    </edge>
    <edge id=":c8_15" function="internal">
        <lane id=":c8_15_0" index="0" speed="9.26" length="6.96" shape="389.60,-801.60 394.85,-800.85 396.27,-800.00"/>
    </edge>
    <edge id=":c8_19" function="internal">
        <lane id=":c8_19_0" index="0" speed="9.26" length="12.40" shape="396.27,-800.00 398.60,-798.60 400.85,-794.85 401.60,-789.60"/>
    </edge>
    <edge id=":c9_0" function="internal">
        <lane id=":c9_0_0" index="0" speed="6.51" length="9.03" shape="795.20,-789.60 794.85,-792.05 793.80,-793.80 792.05,-794.85 789.60,-795.20"/>
    </edge>
    <edge id=":c9_1" function="internal">
        <lane id=":c9_1_0" index="0" speed="13.89" length="20.80" shape="795.20,-789.60 795.20,-810.40"/>
        <lane id=":c9_1_1" index="1" speed="13.89" length="20.80" shape="798.40,-789.60 798.40,-810.40"/>
    </edge>
    <edge id=":c9_3" function="internal">
        <lane id=":c9_3_0" index="0" speed="9.26" length="6.96" shape="798.40,-789.60 799.15,-794.85 800.00,-796.27"/>
    </edge>
    <edge id=":c9_16" function="internal">
        <lane id=":c9_16_0" index="0" speed="9.26" length="12.40" shape="800.00,-796.27 801.40,-798.60 805.15,-800.85 810.40,-801.60"/>
    </edge>
    <edge id=":c9_4" function="internal">
        <lane id=":c9_4_0" index="0" speed="6.51" length="9.03" shape="810.40,-795.20 807.95,-794.85 806.20,-793.80 805.15,-792.05 804.80,-789.60"/>
    </edge>
    <edge id=":c9_5" function="internal">
        <lane id=":c9_5_0" index="0" speed="13.89" length="20.80" shape="810.40,-795.20 789.60,-795.20"/>
        <lane id=":c9_5_1" index="1" speed="13.89" length="20.80" shape="810.40,-798.40 789.60,-798.40"/>
    </edge>
    <edge id=":c9_7" function="internal">
        <lane id=":c9_7_0" index="0" speed="9.26" length="6.96" shape="810.40,-798.40 805.15,-799.15 803.73,-800.00"/>
    </edge>
    <edge id=":c9_17" function="internal">
        <lane id=":c9_17_0" index="0" speed="9.26" length="12.40" shape="803.73,-800.00 801.40,-801.40 799.15,-805.15 798.40,-810.40"/>
    </edge>
    <edge id=":c9_8" function="internal">
        <lane id=":c9_8_0" index="0" speed="6.51" length="9.03" shape="804.80,-810.40 805.15,-807.95 806.20,-806.20 807.95,-805.15 810.40,-804.80"/>
    </edge>
    <edge id=":c9_9" function="internal">
        <lane id=":c9_9_0" index="0" speed="13.89" length="20.80" shape="804.80,-810.40 804.80,-789.60"/>
        <lane id=":c9_9_1" index="1" speed="13.89" length="20.80" shape="801.60,-810.40 801.60,-789.60"/>
    </edge>
    <edge id=":c9_11" function="internal">
        <lane id=":c9_11_0" index="0" speed="9.26" length="6.96" shape="801.60,-810.40 800.85,-805.15 800.00,-803.73"/>
    </edge>
    <edge id=":c9_18" function="internal">