<?xml version="1.0" encoding="UTF-8"?>

<!-- generated on 2020年12月08日 21時41分21秒 by Eclipse SUMO netedit Version 1.8.0
<configuration xmlns:xsi="http://www.w3.org/2001/XMLSchema-instance" xsi:noNamespaceSchemaLocation="http://sumo.dlr.de/xsd/netconvertConfiguration.xsd">

    <input>
        <sumo-net-file value="/home/user/ドキュメント/study/study/iee/dqn/four/four.net.xml"/>
    </input>

    <output>
        <output-file value="/home/user/ドキュメント/study/study/iee/dqn/four/four.net.xml"/>
    </output>

    <processing>
        <geometry.min-radius.fix.railways value="false"/>
        <geometry.max-grade.fix value="false"/>
        <offset.disable-normalization value="true"/>
        <lefthand value="false"/>
    </processing>

    <junctions>
        <no-turnarounds value="true"/>
        <junctions.corner-detail value="5"/>
        <junctions.limit-turn-speed value="5.5"/>
        <rectangular-lane-cut value="false"/>
    </junctions>

    <pedestrian>
        <walkingareas value="false"/>
    </pedestrian>

    <report>
        <aggregate-warnings value="5"/>
    </report>

</configuration>
-->

<net version="1.6" junctionCornerDetail="5" limitTurnSpeed="5.50" xmlns:xsi="http://www.w3.org/2001/XMLSchema-instance" xsi:noNamespaceSchemaLocation="http://sumo.dlr.de/xsd/net_file.xsd">

    <location netOffset="0.00,0.00" convBoundary="-200.00,-600.00,600.00,200.00" origBoundary="-10000000000.00,-10000000000.00,10000000000.00,10000000000.00" projParameter="!"/>

    <edge id=":c1_0" function="internal">
        <lane id=":c1_0_0" index="0" speed="6.51" length="9.03" shape="-4.80,10.40 -5.15,7.95 -6.20,6.20 -7.95,5.15 -10.40,4.80"/>
    </edge>
    <edge id=":c1_1" function="internal">
        <lane id=":c1_1_0" index="0" speed="13.89" length="20.80" shape="-4.80,10.40 -4.80,-10.40"/>
        <lane id=":c1_1_1" index="1" speed="13.89" length="20.80" shape="-1.60,10.40 -1.60,-10.40"/>
    </edge>
    <edge id=":c1_3" function="internal">
        <lane id=":c1_3_0" index="0" speed="9.26" length="6.96" shape="-1.60,10.40 -0.85,5.15 -0.00,3.73"/>
    </edge>
    <edge id=":c1_16" function="internal">
        <lane id=":c1_16_0" index="0" speed="9.26" length="12.40" shape="-0.00,3.73 1.40,1.40 5.15,-0.85 10.40,-1.60"/>
    </edge>
    <edge id=":c1_4" function="internal">
        <lane id=":c1_4_0" index="0" speed="6.51" length="9.03" shape="10.40,4.80 7.95,5.15 6.20,6.20 5.15,7.95 4.80,10.40"/>
    </edge>
    <edge id=":c1_5" function="internal">
        <lane id=":c1_5_0" index="0" speed="13.89" length="20.80" shape="10.40,4.80 -10.40,4.80"/>
        <lane id=":c1_5_1" index="1" speed="13.89" length="20.80" shape="10.40,1.60 -10.40,1.60"/>
    </edge>
    <edge id=":c1_7" function="internal">
        <lane id=":c1_7_0" index="0" speed="9.26" length="6.96" shape="10.40,1.60 5.15,0.85 3.73,0.00"/>
    </edge>
    <edge id=":c1_17" function="internal">
        <lane id=":c1_17_0" index="0" speed="9.26" length="12.40" shape="3.73,0.00 1.40,-1.40 -0.85,-5.15 -1.60,-10.40"/>
    </edge>
    <edge id=":c1_8" function="internal">
        <lane id=":c1_8_0" index="0" speed="6.51" length="9.03" shape="4.80,-10.40 5.15,-7.95 6.20,-6.20 7.95,-5.15 10.40,-4.80"/>
    </edge>
    <edge id=":c1_9" function="internal">
        <lane id=":c1_9_0" index="0" speed="13.89" length="20.80" shape="4.80,-10.40 4.80,10.40"/>
        <lane id=":c1_9_1" index="1" speed="13.89" length="20.80" shape="1.60,-10.40 1.60,10.40"/>
    </edge>
    <edge id=":c1_11" function="internal">
        <lane id=":c1_11_0" index="0" speed="9.26" length="6.96" shape="1.60,-10.40 0.85,-5.15 0.00,-3.73"/>
    </edge>
    <edge id=":c1_18" function="internal">
        <lane id=":c1_18_0" index="0" speed="9.26" length="12.40" shape="0.00,-3.73 -1.40,-1.40 -5.15,0.85 -10.40,1.60"/>
    </edge>
    <edge id=":c1_12" function="internal">
        <lane id=":c1_12_0" index="0" speed="6.51" length="9.03" shape="-10.40,-4.80 -7.95,-5.15 -6.20,-6.20 -5.15,-7.95 -4.80,-10.40"/>
    </edge>
    <edge id=":c1_13" function="internal">
        <lane id=":c1_13_0" index="0" speed="13.89" length="20.80" shape="-10.40,-4.80 10.40,-4.80"/>
        <lane id=":c1_13_1" index="1" speed="13.89" length="20.80" shape="-10.40,-1.60 10.40,-1.60"/>
    </edge>
    <edge id=":c1_15" function="internal">
        <lane id=":c1_15_0" index="0" speed="9.26" length="6.96" shape="-10.40,-1.60 -5.15,-0.85 -3.73,0.00"/>
    </edge>
    <edge id=":c1_19" function="internal">
        <lane id=":c1_19_0" index="0" speed="9.26" length="12.40" shape="-3.73,0.00 -1.40,1.40 0.85,5.15 1.60,10.40"/>
    </edge>
    <edge id=":c2_0" function="internal">
        <lane id=":c2_0_0" index="0" speed="6.51" length="9.03" shape="395.20,10.40 394.85,7.95 393.80,6.20 392.05,5.15 389.60,4.80"/>
    </edge>
    <edge id=":c2_1" function="internal">
        <lane id=":c2_1_0" index="0" speed="13.89" length="20.80" shape="395.20,10.40 395.20,-10.40"/>
        <lane id=":c2_1_1" index="1" speed="13.89" length="20.80" shape="398.40,10.40 398.40,-10.40"/>
    </edge>
    <edge id=":c2_3" function="internal">
        <lane id=":c2_3_0" index="0" speed="9.26" length="6.96" shape="398.40,10.40 399.15,5.15 400.00,3.73"/>
    </edge>
    <edge id=":c2_16" function="internal">
        <lane id=":c2_16_0" index="0" speed="9.26" length="12.40" shape="400.00,3.73 401.40,1.40 405.15,-0.85 410.40,-1.60"/>
    </edge>
    <edge id=":c2_4" function="internal">
        <lane id=":c2_4_0" index="0" speed="6.51" length="9.03" shape="410.40,4.80 407.95,5.15 406.20,6.20 405.15,7.95 404.80,10.40"/>
    </edge>
    <edge id=":c2_5" function="internal">
        <lane id=":c2_5_0" index="0" speed="13.89" length="20.80" shape="410.40,4.80 389.60,4.80"/>
        <lane id=":c2_5_1" index="1" speed="13.89" length="20.80" shape="410.40,1.60 389.60,1.60"/>
    </edge>
    <edge id=":c2_7" function="internal">
        <lane id=":c2_7_0" index="0" speed="9.26" length="6.96" shape="410.40,1.60 405.15,0.85 403.73,-0.00"/>
    </edge>
    <edge id=":c2_17" function="internal">
        <lane id=":c2_17_0" index="0" speed="9.26" length="12.40" shape="403.73,-0.00 401.40,-1.40 399.15,-5.15 398.40,-10.40"/>
    </edge>
    <edge id=":c2_8" function="internal">
        <lane id=":c2_8_0" index="0" speed="6.51" length="9.03" shape="404.80,-10.40 405.15,-7.95 406.20,-6.20 407.95,-5.15 410.40,-4.80"/>
    </edge>
    <edge id=":c2_9" function="internal">
        <lane id=":c2_9_0" index="0" speed="13.89" length="20.80" shape="404.80,-10.40 404.80,10.40"/>
        <lane id=":c2_9_1" index="1" speed="13.89" length="20.80" shape="401.60,-10.40 401.60,10.40"/>
    </edge>
    <edge id=":c2_11" function="internal">
        <lane id=":c2_11_0" index="0" speed="9.26" length="6.96" shape="401.60,-10.40 400.85,-5.15 400.00,-3.73"/>
    </edge>
    <edge id=":c2_18" function="internal">
        <lane id=":c2_18_0" index="0" speed="9.26" length="12.40" shape="400.00,-3.73 398.60,-1.40 394.85,0.85 389.60,1.60"/>
    </edge>
    <edge id=":c2_12" function="internal">
        <lane id=":c2_12_0" index="0" speed="6.51" length="9.03" shape="389.60,-4.80 392.05,-5.15 393.80,-6.20 394.85,-7.95 395.20,-10.40"/>
    </edge>
    <edge id=":c2_13" function="internal">
        <lane id=":c2_13_0" index="0" speed="13.89" length="20.80" shape="389.60,-4.80 410.40,-4.80"/>
        <lane id=":c2_13_1" index="1" speed="13.89" length="20.80" shape="389.60,-1.60 410.40,-1.60"/>
    </edge>
    <edge id=":c2_15" function="internal">
        <lane id=":c2_15_0" index="0" speed="9.26" length="6.96" shape="389.60,-1.60 394.85,-0.85 396.27,0.00"/>
    </edge>
    <edge id=":c2_19" function="internal">
        <lane id=":c2_19_0" index="0" speed="9.26" length="12.40" shape="396.27,0.00 398.60,1.40 400.85,5.15 401.60,10.40"/>
    </edge>
    <edge id=":c3_0" function="internal">
        <lane id=":c3_0_0" index="0" speed="6.51" length="9.03" shape="-4.80,-389.60 -5.15,-392.05 -6.20,-393.80 -7.95,-394.85 -10.40,-395.20"/>
    </edge>
    <edge id=":c3_1" function="internal">
        <lane id=":c3_1_0" index="0" speed="13.89" length="20.80" shape="-4.80,-389.60 -4.80,-410.40"/>
        <lane id=":c3_1_1" index="1" speed="13.89" length="20.80" shape="-1.60,-389.60 -1.60,-410.40"/>
    </edge>
    <edge id=":c3_3" function="internal">
        <lane id=":c3_3_0" index="0" speed="9.26" length="6.96" shape="-1.60,-389.60 -0.85,-394.85 0.00,-396.27"/>
    </edge>
    <edge id=":c3_16" function="internal">
        <lane id=":c3_16_0" index="0" speed="9.26" length="12.40" shape="0.00,-396.27 1.40,-398.60 5.15,-400.85 10.40,-401.60"/>
    </edge>
    <edge id=":c3_4" function="internal">
        <lane id=":c3_4_0" index="0" speed="6.51" length="9.03" shape="10.40,-395.20 7.95,-394.85 6.20,-393.80 5.15,-392.05 4.80,-389.60"/>
    </edge>
    <edge id=":c3_5" function="internal">
        <lane id=":c3_5_0" index="0" speed="13.89" length="20.80" shape="10.40,-395.20 -10.40,-395.20"/>
        <lane id=":c3_5_1" index="1" speed="13.89" length="20.80" shape="10.40,-398.40 -10.40,-398.40"/>
    </edge>
    <edge id=":c3_7" function="internal">
        <lane id=":c3_7_0" index="0" speed="9.26" length="6.96" shape="10.40,-398.40 5.15,-399.15 3.73,-400.00"/>
    </edge>
    <edge id=":c3_17" function="internal">
        <lane id=":c3_17_0" index="0" speed="9.26" length="12.40" shape="3.73,-400.00 1.40,-401.40 -0.85,-405.15 -1.60,-410.40"/>
    </edge>
    <edge id=":c3_8" function="internal">
        <lane id=":c3_8_0" index="0" speed="6.51" length="9.03" shape="4.80,-410.40 5.15,-407.95 6.20,-406.20 7.95,-405.15 10.40,-404.80"/>
    </edge>
    <edge id=":c3_9" function="internal">
        <lane id=":c3_9_0" index="0" speed="13.89" length="20.80" shape="4.80,-410.40 4.80,-389.60"/>
        <lane id=":c3_9_1" index="1" speed="13.89" length="20.80" shape="1.60,-410.40 1.60,-389.60"/>
    </edge>
    <edge id=":c3_11" function="internal">
        <lane id=":c3_11_0" index="0" speed="9.26" length="6.96" shape="1.60,-410.40 0.85,-405.15 -0.00,-403.73"/>
    </edge>
    <edge id=":c3_18" function="internal">
        <lane id=":c3_18_0" index="0" speed="9.26" length="12.40" shape="-0.00,-403.73 -1.40,-401.40 -5.15,-399.15 -10.40,-398.40"/>
    </edge>
    <edge id=":c3_12" function="internal">
        <lane id=":c3_12_0" index="0" speed="6.51" length="9.03" shape="-10.40,-404.80 -7.95,-405.15 -6.20,-406.20 -5.15,-407.95 -4.80,-410.40"/>
    </edge>
    <edge id=":c3_13" function="internal">
        <lane id=":c3_13_0" index="0" speed="13.89" length="20.80" shape="-10.40,-404.80 10.40,-404.80"/>
        <lane id=":c3_13_1" index="1" speed="13.89" length="20.80" shape="-10.40,-401.60 10.40,-401.60"/>
    </edge>
    <edge id=":c3_15" function="internal">
        <lane id=":c3_15_0" index="0" speed="9.26" length="6.96" shape="-10.40,-401.60 -5.15,-400.85 -3.73,-400.00"/>
    </edge>
    <edge id=":c3_19" function="internal">
        <lane id=":c3_19_0" index="0" speed="9.26" length="12.40" shape="-3.73,-400.00 -1.40,-398.60 0.85,-394.85 1.60,-389.60"/>
    </edge>
    <edge id=":c4_0" function="internal">
        <lane id=":c4_0_0" index="0" speed="6.51" length="9.03" shape="395.20,-389.60 394.85,-392.05 393.80,-393.80 392.05,-394.85 389.60,-395.20"/>
    </edge>
    <edge id=":c4_1" function="internal">
        <lane id=":c4_1_0" index="0" speed="13.89" length="20.80" shape="395.20,-389.60 395.20,-410.40"/>
        <lane id=":c4_1_1" index="1" speed="13.89" length="20.80" shape="398.40,-389.60 398.40,-410.40"/>
    </edge>
    <edge id=":c4_3" function="internal">
        <lane id=":c4_3_0" index="0" speed="9.26" length="6.96" shape="398.40,-389.60 399.15,-394.85 400.00,-396.27"/>
    </edge>
    <edge id=":c4_16" function="internal">
        <lane id=":c4_16_0" index="0" speed="9.26" length="12.40" shape="400.00,-396.27 401.40,-398.60 405.15,-400.85 410.40,-401.60"/>
    </edge>
    <edge id=":c4_4" function="internal">
        <lane id=":c4_4_0" index="0" speed="6.51" length="9.03" shape="410.40,-395.20 407.95,-394.85 406.20,-393.80 405.15,-392.05 404.80,-389.60"/>
    </edge>
    <edge id=":c4_5" function="internal">
        <lane id=":c4_5_0" index="0" speed="13.89" length="20.80" shape="410.40,-395.20 389.60,-395.20"/>
        <lane id=":c4_5_1" index="1" speed="13.89" length="20.80" shape="410.40,-398.40 389.60,-398.40"/>
    </edge>
    <edge id=":c4_7" function="internal">
        <lane id=":c4_7_0" index="0" speed="9.26" length="6.96" shape="410.40,-398.40 405.15,-399.15 403.73,-400.00"/>
    </edge>
    <edge id=":c4_17" function="internal">
        <lane id=":c4_17_0" index="0" speed="9.26" length="12.40" shape="403.73,-400.00 401.40,-401.40 399.15,-405.15 398.40,-410.40"/>
    </edge>
    <edge id=":c4_8" function="internal">
        <lane id=":c4_8_0" index="0" speed="6.51" length="9.03" shape="404.80,-410.40 405.15,-407.95 406.20,-406.20 407.95,-405.15 410.40,-404.80"/>
    </edge>
    <edge id=":c4_9" function="internal">
        <lane id=":c4_9_0" index="0" speed="13.89" length="20.80" shape="404.80,-410.40 404.80,-389.60"/>
        <lane id=":c4_9_1" index="1" speed="13.89" length="20.80" shape="401.60,-410.40 401.60,-389.60"/>
    </edge>
    <edge id=":c4_11" function="internal">
        <lane id=":c4_11_0" index="0" speed="9.26" length="6.96" shape="401.60,-410.40 400.85,-405.15 400.00,-403.73"/>
    </edge>
    <edge id=":c4_18" function="internal">
        <lane id=":c4_18_0" index="0" speed="9.26" length="12.40" shape="400.00,-403.73 398.60,-401.40 394.85,-399.15 389.60,-398.40"/>
    </edge>
    <edge id=":c4_12" function="internal">
        <lane id=":c4_12_0" index="0" speed="6.51" length="9.03" shape="389.60,-404.80 392.05,-405.15 393.80,-406.20 394.85,-407.95 395.20,-410.40"/>
    </edge>
    <edge id=":c4_13" function="internal">
        <lane id=":c4_13_0" index="0" speed="13.89" length="20.80" shape="389.60,-404.80 410.40,-404.80"/>
        <lane id=":c4_13_1" index="1" speed="13.89" length="20.80" shape="389.60,-401.60 410.40,-401.60"/>
    </edge>
    <edge id=":c4_15" function="internal">
        <lane id=":c4_15_0" index="0" speed="9.26" length="6.96" shape="389.60,-401.60 394.85,-400.85 396.27,-400.00"/>
    </edge>
    <edge id=":c4_19" function="internal">
        <lane id=":c4_19_0" index="0" speed="9.26" length="12.40" shape="396.27,-400.00 398.60,-398.60 400.85,-394.85 401.60,-389.60"/>
    </edge>

    <edge id="b1_c3" from="b1" to="c3" priority="-1">
        <lane id="b1_c3_0" index="0" speed="13.89" length="189.60" shape="4.80,-600.00 4.80,-410.40"/>
        <lane id="b1_c3_1" index="1" speed="13.89" length="189.60" shape="1.60,-600.00 1.60,-410.40"/>
    </edge>
    <edge id="b2_c4" from="b2" to="c4" priority="-1">
        <lane id="b2_c4_0" index="0" speed="13.89" length="189.60" shape="404.80,-600.00 404.80,-410.40"/>
        <lane id="b2_c4_1" index="1" speed="13.89" length="189.60" shape="401.60,-600.00 401.60,-410.40"/>
    </edge>
    <edge id="c1_c2" from="c1" to="c2" priority="-1">
        <lane id="c1_c2_0" index="0" speed="13.89" length="379.20" shape="10.40,-4.80 389.60,-4.80"/>
        <lane id="c1_c2_1" index="1" speed="13.89" length="379.20" shape="10.40,-1.60 389.60,-1.60"/>
    </edge>
    <edge id="c1_c3" from="c1" to="c3" priority="-1">
        <lane id="c1_c3_0" index="0" speed="13.89" length="379.20" shape="-4.80,-10.40 -4.80,-389.60"/>
        <lane id="c1_c3_1" index="1" speed="13.89" length="379.20" shape="-1.60,-10.40 -1.60,-389.60"/>
    </edge>
    <edge id="c1_l1" from="c1" to="l1" priority="-1">
        <lane id="c1_l1_0" index="0" speed="13.89" length="189.60" shape="-10.40,4.80 -200.00,4.80"/>
        <lane id="c1_l1_1" index="1" speed="13.89" length="189.60" shape="-10.40,1.60 -200.00,1.60"/>
    </edge>
    <edge id="c1_t1" from="c1" to="t1" priority="-1">
        <lane id="c1_t1_0" index="0" speed="13.89" length="189.60" shape="4.80,10.40 4.80,200.00"/>
        <lane id="c1_t1_1" index="1" speed="13.89" length="189.60" shape="1.60,10.40 1.60,200.00"/>
    </edge>
    <edge id="c2_c1" from="c2" to="c1" priority="-1">
        <lane id="c2_c1_0" index="0" speed="13.89" length="379.20" shape="389.60,4.80 10.40,4.80"/>
        <lane id="c2_c1_1" index="1" speed="13.89" length="379.20" shape="389.60,1.60 10.40,1.60"/>
    </edge>
    <edge id="c2_c4" from="c2" to="c4" priority="-1">
        <lane id="c2_c4_0" index="0" speed="13.89" length="379.20" shape="395.20,-10.40 395.20,-389.60"/>
        <lane id="c2_c4_1" index="1" speed="13.89" length="379.20" shape="398.40,-10.40 398.40,-389.60"/>
    </edge>
    <edge id="c2_r1" from="c2" to="r" priority="-1">
        <lane id="c2_r1_0" index="0" speed="13.89" length="189.60" shape="410.40,-4.80 600.00,-4.80"/>
        <lane id="c2_r1_1" index="1" speed="13.89" length="189.60" shape="410.40,-1.60 600.00,-1.60"/>
    </edge>
    <edge id="c2_t2" from="c2" to="t2" priority="-1">
        <lane id="c2_t2_0" index="0" speed="13.89" length="189.60" shape="404.80,10.40 404.80,200.00"/>
        <lane id="c2_t2_1" index="1" speed="13.89" length="189.60" shape="401.60,10.40 401.60,200.00"/>
    </edge>
    <edge id="c3_b1" from="c3" to="b1" priority="-1">
        <lane id="c3_b1_0" index="0" speed="13.89" length="189.60" shape="-4.80,-410.40 -4.80,-600.00"/>
        <lane id="c3_b1_1" index="1" speed="13.89" length="189.60" shape="-1.60,-410.40 -1.60,-600.00"/>
    </edge>
    <edge id="c3_c1" from="c3" to="c1" priority="-1">
        <lane id="c3_c1_0" index="0" speed="13.89" length="379.20" shape="4.80,-389.60 4.80,-10.40"/>
        <lane id="c3_c1_1" index="1" speed="13.89" length="379.20" shape="1.60,-389.60 1.60,-10.40"/>
    </edge>
    <edge id="c3_c4" from="c3" to="c4" priority="-1">
        <lane id="c3_c4_0" index="0" speed="13.89" length="379.20" shape="10.40,-404.80 389.60,-404.80"/>
        <lane id="c3_c4_1" index="1" speed="13.89" length="379.20" shape="10.40,-401.60 389.60,-401.60"/>
    </edge>
    <edge id="c3_l2" from="c3" to="l2" priority="-1">
        <lane id="c3_l2_0" index="0" speed="13.89" length="189.60" shape="-10.40,-395.20 -200.00,-395.20"/>
        <lane id="c3_l2_1" index="1" speed="13.89" length="189.60" shape="-10.40,-398.40 -200.00,-398.40"/>
    </edge>
    <edge id="c4_b2" from="c4" to="b2" priority="-1">
        <lane id="c4_b2_0" index="0" speed="13.89" length="189.60" shape="395.20,-410.40 395.20,-600.00"/>
        <lane id="c4_b2_1" index="1" speed="13.89" length="189.60" shape="398.40,-410.40 398.40,-600.00"/>
    </edge>
    <edge id="c4_c2" from="c4" to="c2" priority="-1">
        <lane id="c4_c2_0" index="0" speed="13.89" length="379.20" shape="404.80,-389.60 404.80,-10.40"/>
        <lane id="c4_c2_1" index="1" speed="13.89" length="379.20" shape="401.60,-389.60 401.60,-10.40"/>
    </edge>
    <edge id="c4_c3" from="c4" to="c3" priority="-1">
        <lane id="c4_c3_0" index="0" speed="13.89" length="379.20" shape="389.60,-395.20 10.40,-395.20"/>
        <lane id="c4_c3_1" index="1" speed="13.89" length="379.20" shape="389.60,-398.40 10.40,-398.40"/>
    </edge>
    <edge id="c4_r2" from="c4" to="r2" priority="-1">
        <lane id="c4_r2_0" index="0" speed="13.89" length="189.60" shape="410.40,-404.80 600.00,-404.80"/>
        <lane id="c4_r2_1" index="1" speed="13.89" length="189.60" shape="410.40,-401.60 600.00,-401.60"/>
    </edge>
    <edge id="l1_c1" from="l1" to="c1" priority="-1">
        <lane id="l1_c1_0" index="0" speed="13.89" length="189.60" shape="-200.00,-4.80 -10.40,-4.80"/>
        <lane id="l1_c1_1" index="1" speed="13.89" length="189.60" shape="-200.00,-1.60 -10.40,-1.60"/>
    </edge>
    <edge id="l2_c3" from="l2" to="c3" priority="-1">
        <lane id="l2_c3_0" index="0" speed="13.89" length="189.60" shape="-200.00,-404.80 -10.40,-404.80"/>
        <lane id="l2_c3_1" index="1" speed="13.89" length="189.60" shape="-200.00,-401.60 -10.40,-401.60"/>
    </edge>
    <edge id="r1_c2" from="r" to="c2" priority="-1">
        <lane id="r1_c2_0" index="0" speed="13.89" length="189.60" shape="600.00,4.80 410.40,4.80"/>
        <lane id="r1_c2_1" index="1" speed="13.89" length="189.60" shape="600.00,1.60 410.40,1.60"/>
    </edge>
    <edge id="r2_c4" from="r2" to="c4" priority="-1">
        <lane id="r2_c4_0" index="0" speed="13.89" length="189.60" shape="600.00,-395.20 410.40,-395.20"/>
        <lane id="r2_c4_1" index="1" speed="13.89" length="189.60" shape="600.00,-398.40 410.40,-398.40"/>
    </edge>
    <edge id="t1_c1" from="t1" to="c1" priority="-1">
        <lane id="t1_c1_0" index="0" speed="13.89" length="189.60" shape="-4.80,200.00 -4.80,10.40"/>
        <lane id="t1_c1_1" index="1" speed="13.89" length="189.60" shape="-1.60,200.00 -1.60,10.40"/>
    </edge>
    <edge id="t2_c2" from="t2" to="c2" priority="-1">
        <lane id="t2_c2_0" index="0" speed="13.89" length="189.60" shape="395.20,200.00 395.20,10.40"/>
        <lane id="t2_c2_1" index="1" speed="13.89" length="189.60" shape="398.40,200.00 398.40,10.40"/>
    </edge>

    <tlLogic id="c1" type="static" programID="0" offset="0">
        <phase duration="42" state="GGGgrrrrGGGgrrrr"/>
        <phase duration="3"  state="yyyyrrrryyyyrrrr"/>
        <phase duration="42" state="rrrrGGGgrrrrGGGg"/>
        <phase duration="3"  state="rrrryyyyrrrryyyy"/>
    </tlLogic>
    <tlLogic id="c2" type="static" programID="0" offset="0">
        <phase duration="42" state="GGGgrrrrGGGgrrrr"/>
        <phase duration="3"  state="yyyyrrrryyyyrrrr"/>
        <phase duration="42" state="rrrrGGGgrrrrGGGg"/>
        <phase duration="3"  state="rrrryyyyrrrryyyy"/>
    </tlLogic>
    <tlLogic id="c3" type="static" programID="0" offset="0">
        <phase duration="42" state="GGGgrrrrGGGgrrrr"/>
        <phase duration="3"  state="yyyyrrrryyyyrrrr"/>
        <phase duration="42" state="rrrrGGGgrrrrGGGg"/>
        <phase duration="3"  state="rrrryyyyrrrryyyy"/>
    </tlLogic>
    <tlLogic id="c4" type="static" programID="0" offset="0">
        <phase duration="42" state="GGGgrrrrGGGgrrrr"/>
        <phase duration="3"  state="yyyyrrrryyyyrrrr"/>
        <phase duration="42" state="rrrrGGGgrrrrGGGg"/>
        <phase duration="3"  state="rrrryyyyrrrryyyy"/>
    </tlLogic>

    <junction id="b1" type="dead_end" x="0.00" y="-600.00" incLanes="c3_b1_0 c3_b1_1" intLanes="" shape="0.00,-600.00 -6.40,-600.00 0.00,-600.00"/>
    <junction id="b2" type="dead_end" x="400.00" y="-600.00" incLanes="c4_b2_0 c4_b2_1" intLanes="" shape="400.00,-600.00 393.60,-600.00 400.00,-600.00"/>
    <junction id="c1" type="traffic_light" x="0.00" y="0.00" incLanes="t1_c1_0 t1_c1_1 c2_c1_0 c2_c1_1 c3_c1_0 c3_c1_1 l1_c1_0 l1_c1_1" intLanes=":c1_0_0 :c1_1_0 :c1_1_1 :c1_16_0 :c1_4_0 :c1_5_0 :c1_5_1 :c1_17_0 :c1_8_0 :c1_9_0 :c1_9_1 :c1_18_0 :c1_12_0 :c1_13_0 :c1_13_1 :c1_19_0" shape="-6.40,10.40 6.40,10.40 6.84,8.18 7.40,7.40 8.18,6.84 9.18,6.51 10.40,6.40 10.40,-6.40 8.18,-6.84 7.40,-7.40 6.84,-8.18 6.51,-9.18 6.40,-10.40 -6.40,-10.40 -6.84,-8.18 -7.40,-7.40 -8.18,-6.84 -9.18,-6.51 -10.40,-6.40 -10.40,6.40 -8.18,6.84 -7.40,7.40 -6.84,8.18 -6.51,9.18">
        <request index="0"  response="0000000000000000" foes="0000000001100000" cont="0"/>
        <request index="1"  response="1000000010000000" foes="1111100011100000" cont="0"/>
        <request index="2"  response="1000000010000000" foes="1111100011100000" cont="0"/>
        <request index="3"  response="1000011010000000" foes="1110011011100000" cont="1"/>
        <request index="4"  response="0000011000000000" foes="0000011000000000" cont="0"/>
        <request index="5"  response="0000111000001111" foes="1000111000001111" cont="0"/>
        <request index="6"  response="0000111000001111" foes="1000111000001111" cont="0"/>
        <request index="7"  response="0110111000001110" foes="0110111000001110" cont="1"/>
        <request index="8"  response="0000000000000000" foes="0110000000000000" cont="0"/>
        <request index="9"  response="1000000010000000" foes="1110000011111000" cont="0"/>
        <request index="10" response="1000000010000000" foes="1110000011111000" cont="0"/>
        <request index="11" response="1000000010000110" foes="1110000011100110" cont="1"/>
        <request index="12" response="0000000000000110" foes="0000000000000110" cont="0"/>
        <request index="13" response="0000111100001110" foes="0000111110001110" cont="0"/>
        <request index="14" response="0000111100001110" foes="0000111110001110" cont="0"/>
        <request index="15" response="0000111001101110" foes="0000111001101110" cont="1"/>
    </junction>
    <junction id="c2" type="traffic_light" x="400.00" y="0.00" incLanes="t2_c2_0 t2_c2_1 r1_c2_0 r1_c2_1 c4_c2_0 c4_c2_1 c1_c2_0 c1_c2_1" intLanes=":c2_0_0 :c2_1_0 :c2_1_1 :c2_16_0 :c2_4_0 :c2_5_0 :c2_5_1 :c2_17_0 :c2_8_0 :c2_9_0 :c2_9_1 :c2_18_0 :c2_12_0 :c2_13_0 :c2_13_1 :c2_19_0" shape="393.60,10.40 406.40,10.40 406.84,8.18 407.40,7.40 408.18,6.84 409.18,6.51 410.40,6.40 410.40,-6.40 408.18,-6.84 407.40,-7.40 406.84,-8.18 406.51,-9.18 406.40,-10.40 393.60,-10.40 393.16,-8.18 392.60,-7.40 391.82,-6.84 390.82,-6.51 389.60,-6.40 389.60,6.40 391.82,6.84 392.60,7.40 393.16,8.18 393.49,9.18">
        <request index="0"  response="0000000000000000" foes="0000000001100000" cont="0"/>
        <request index="1"  response="1000000010000000" foes="1111100011100000" cont="0"/>
        <request index="2"  response="1000000010000000" foes="1111100011100000" cont="0"/>
        <request index="3"  response="1000011010000000" foes="1110011011100000" cont="1"/>
        <request index="4"  response="0000011000000000" foes="0000011000000000" cont="0"/>
        <request index="5"  response="0000111000001111" foes="1000111000001111" cont="0"/>
        <request index="6"  response="0000111000001111" foes="1000111000001111" cont="0"/>
        <request index="7"  response="0110111000001110" foes="0110111000001110" cont="1"/>
        <request index="8"  response="0000000000000000" foes="0110000000000000" cont="0"/>
        <request index="9"  response="1000000010000000" foes="1110000011111000" cont="0"/>
        <request index="10" response="1000000010000000" foes="1110000011111000" cont="0"/>
        <request index="11" response="1000000010000110" foes="1110000011100110" cont="1"/>
        <request index="12" response="0000000000000110" foes="0000000000000110" cont="0"/>
        <request index="13" response="0000111100001110" foes="0000111110001110" cont="0"/>
        <request index="14" response="0000111100001110" foes="0000111110001110" cont="0"/>
        <request index="15" response="0000111001101110" foes="0000111001101110" cont="1"/>
    </junction>
    <junction id="c3" type="traffic_light" x="0.00" y="-400.00" incLanes="c1_c3_0 c1_c3_1 c4_c3_0 c4_c3_1 b1_c3_0 b1_c3_1 l2_c3_0 l2_c3_1" intLanes=":c3_0_0 :c3_1_0 :c3_1_1 :c3_16_0 :c3_4_0 :c3_5_0 :c3_5_1 :c3_17_0 :c3_8_0 :c3_9_0 :c3_9_1 :c3_18_0 :c3_12_0 :c3_13_0 :c3_13_1 :c3_19_0" shape="-6.40,-389.60 6.40,-389.60 6.84,-391.82 7.40,-392.60 8.18,-393.16 9.18,-393.49 10.40,-393.60 10.40,-406.40 8.18,-406.84 7.40,-407.40 6.84,-408.18 6.51,-409.18 6.40,-410.40 -6.40,-410.40 -6.84,-408.18 -7.40,-407.40 -8.18,-406.84 -9.18,-406.51 -10.40,-406.40 -10.40,-393.60 -8.18,-393.16 -7.40,-392.60 -6.84,-391.82 -6.51,-390.82">
        <request index="0"  response="0000000000000000" foes="0000000001100000" cont="0"/>
        <request index="1"  response="1000000010000000" foes="1111100011100000" cont="0"/>
        <request index="2"  response="1000000010000000" foes="1111100011100000" cont="0"/>
        <request index="3"  response="1000011010000000" foes="1110011011100000" cont="1"/>
        <request index="4"  response="0000011000000000" foes="0000011000000000" cont="0"/>
        <request index="5"  response="0000111000001111" foes="1000111000001111" cont="0"/>
        <request index="6"  response="0000111000001111" foes="1000111000001111" cont="0"/>
        <request index="7"  response="0110111000001110" foes="0110111000001110" cont="1"/>
        <request index="8"  response="0000000000000000" foes="0110000000000000" cont="0"/>
        <request index="9"  response="1000000010000000" foes="1110000011111000" cont="0"/>
        <request index="10" response="1000000010000000" foes="1110000011111000" cont="0"/>
        <request index="11" response="1000000010000110" foes="1110000011100110" cont="1"/>
        <request index="12" response="0000000000000110" foes="0000000000000110" cont="0"/>
        <request index="13" response="0000111100001110" foes="0000111110001110" cont="0"/>
        <request index="14" response="0000111100001110" foes="0000111110001110" cont="0"/>
        <request index="15" response="0000111001101110" foes="0000111001101110" cont="1"/>
    </junction>
    <junction id="c4" type="traffic_light" x="400.00" y="-400.00" incLanes="c2_c4_0 c2_c4_1 r2_c4_0 r2_c4_1 b2_c4_0 b2_c4_1 c3_c4_0 c3_c4_1" intLanes=":c4_0_0 :c4_1_0 :c4_1_1 :c4_16_0 :c4_4_0 :c4_5_0 :c4_5_1 :c4_17_0 :c4_8_0 :c4_9_0 :c4_9_1 :c4_18_0 :c4_12_0 :c4_13_0 :c4_13_1 :c4_19_0" shape="393.60,-389.60 406.40,-389.60 406.84,-391.82 407.40,-392.60 408.18,-393.16 409.18,-393.49 410.40,-393.60 410.40,-406.40 408.18,-406.84 407.40,-407.40 406.84,-408.18 406.51,-409.18 406.40,-410.40 393.60,-410.40 393.16,-408.18 392.60,-407.40 391.82,-406.84 390.82,-406.51 389.60,-406.40 389.60,-393.60 391.82,-393.16 392.60,-392.60 393.16,-391.82 393.49,-390.82">
        <request index="0"  response="0000000000000000" foes="0000000001100000" cont="0"/>
        <request index="1"  response="1000000010000000" foes="1111100011100000" cont="0"/>
        <request index="2"  response="1000000010000000" foes="1111100011100000" cont="0"/>
        <request index="3"  response="1000011010000000" foes="1110011011100000" cont="1"/>
        <request index="4"  response="0000011000000000" foes="0000011000000000" cont="0"/>
        <request index="5"  response="0000111000001111" foes="1000111000001111" cont="0"/>
        <request index="6"  response="0000111000001111" foes="1000111000001111" cont="0"/>