<?xml version="1.0" encoding="UTF-8"?>

<!-- generated on 2020年12月08日 18時44分40秒 by Eclipse SUMO netedit Version 1.8.0
<configuration xmlns:xsi="http://www.w3.org/2001/XMLSchema-instance" xsi:noNamespaceSchemaLocation="http://sumo.dlr.de/xsd/netconvertConfiguration.xsd">

    <input>
        <sumo-net-file value="/home/user/ドキュメント/study/study/iee/dqn/double/dqn.net.xml"/>
    </input>

    <output>
        <output-file value="/home/user/ドキュメント/study/study/iee/dqn/double/dqn.net.xml"/>
    </output>

    <processing>
        <geometry.min-radius.fix.railways value="false"/>
        <geometry.max-grade.fix value="false"/>
        <offset.disable-normalization value="true"/>
        <lefthand value="false"/>
    </processing>

    <junctions>
        <no-turnarounds value="true"/>
        <junctions.corner-detail value="5"/>
        <junctions.limit-turn-speed value="5.5"/>
        <rectangular-lane-cut value="false"/>
    </junctions>

    <pedestrian>
        <walkingareas value="false"/>
    </pedestrian>

    <report>
        <aggregate-warnings value="5"/>
    </report>

</configuration>
-->

<net version="1.6" junctionCornerDetail="5" limitTurnSpeed="5.50" xmlns:xsi="http://www.w3.org/2001/XMLSchema-instance" xsi:noNamespaceSchemaLocation="http://sumo.dlr.de/xsd/net_file.xsd">

    <location netOffset="0.00,0.00" convBoundary="-200.00,-200.00,600.00,200.00" origBoundary="-10000000000.00,-10000000000.00,10000000000.00,10000000000.00" projParameter="!"/>

    <edge id=":c1_0" function="internal">
        <lane id=":c1_0_0" index="0" speed="6.51" length="9.03" shape="-4.80,10.40 -5.15,7.95 -6.20,6.20 -7.95,5.15 -10.40,4.80"/>
    </edge>
    <edge id=":c1_1" function="internal">
        <lane id=":c1_1_0" index="0" speed="13.89" length="20.80" shape="-4.80,10.40 -4.80,-10.40"/>
        <lane id=":c1_1_1" index="1" speed="13.89" length="20.80" shape="-1.60,10.40 -1.60,-10.40"/>
    </edge>
    <edge id=":c1_3" function="internal">
        <lane id=":c1_3_0" index="0" speed="9.26" length="6.96" shape="-1.60,10.40 -0.85,5.15 -0.00,3.73"/>
    </edge>
    <edge id=":c1_16" function="internal">
        <lane id=":c1_16_0" index="0" speed="9.26" length="12.40" shape="-0.00,3.73 1.40,1.40 5.15,-0.85 10.40,-1.60"/>
    </edge>
    <edge id=":c1_4" function="internal">
        <lane id=":c1_4_0" index="0" speed="6.51" length="9.03" shape="10.40,4.80 7.95,5.15 6.20,6.20 5.15,7.95 4.80,10.40"/>
    </edge>
    <edge id=":c1_5" function="internal">
        <lane id=":c1_5_0" index="0" speed="13.89" length="20.80" shape="10.40,4.80 -10.40,4.80"/>
        <lane id=":c1_5_1" index="1" speed="13.89" length="20.80" shape="10.40,1.60 -10.40,1.60"/>
    </edge>
    <edge id=":c1_7" function="internal">
        <lane id=":c1_7_0" index="0" speed="9.26" length="6.96" shape="10.40,1.60 5.15,0.85 3.73,0.00"/>
    </edge>
    <edge id=":c1_17" function="internal">
        <lane id=":c1_17_0" index="0" speed="9.26" length="12.40" shape="3.73,0.00 1.40,-1.40 -0.85,-5.15 -1.60,-10.40"/>
    </edge>
    <edge id=":c1_8" function="internal">
        <lane id=":c1_8_0" index="0" speed="6.51" length="9.03" shape="4.80,-10.40 5.15,-7.95 6.20,-6.20 7.95,-5.15 10.40,-4.80"/>
    </edge>
    <edge id=":c1_9" function="internal">
        <lane id=":c1_9_0" index="0" speed="13.89" length="20.80" shape="4.80,-10.40 4.80,10.40"/>
        <lane id=":c1_9_1" index="1" speed="13.89" length="20.80" shape="1.60,-10.40 1.60,10.40"/>
    </edge>
    <edge id=":c1_11" function="internal">
        <lane id=":c1_11_0" index="0" speed="9.26" length="6.96" shape="1.60,-10.40 0.85,-5.15 0.00,-3.73"/>
    </edge>
    <edge id=":c1_18" function="internal">
        <lane id=":c1_18_0" index="0" speed="9.26" length="12.40" shape="0.00,-3.73 -1.40,-1.40 -5.15,0.85 -10.40,1.60"/>
    </edge>
    <edge id=":c1_12" function="internal">
        <lane id=":c1_12_0" index="0" speed="6.51" length="9.03" shape="-10.40,-4.80 -7.95,-5.15 -6.20,-6.20 -5.15,-7.95 -4.80,-10.40"/>
    </edge>
    <edge id=":c1_13" function="internal">
        <lane id=":c1_13_0" index="0" speed="13.89" length="20.80" shape="-10.40,-4.80 10.40,-4.80"/>
        <lane id=":c1_13_1" index="1" speed="13.89" length="20.80" shape="-10.40,-1.60 10.40,-1.60"/>
    </edge>
    <edge id=":c1_15" function="internal">
        <lane id=":c1_15_0" index="0" speed="9.26" length="6.96" shape="-10.40,-1.60 -5.15,-0.85 -3.73,0.00"/>
    </edge>
    <edge id=":c1_19" function="internal">
        <lane id=":c1_19_0" index="0" speed="9.26" length="12.40" shape="-3.73,0.00 -1.40,1.40 0.85,5.15 1.60,10.40"/>
    </edge>
    <edge id=":c2_0" function="internal">
        <lane id=":c2_0_0" index="0" speed="6.51" length="9.03" shape="395.20,10.40 394.85,7.95 393.80,6.20 392.05,5.15 389.60,4.80"/>
    </edge>
    <edge id=":c2_1" function="internal">
        <lane id=":c2_1_0" index="0" speed="13.89" length="20.80" shape="395.20,10.40 395.20,-10.40"/>
        <lane id=":c2_1_1" index="1" speed="13.89" length="20.80" shape="398.40,10.40 398.40,-10.40"/>
    </edge>
    <edge id=":c2_3" function="internal">
        <lane id=":c2_3_0" index="0" speed="9.26" length="6.96" shape="398.40,10.40 399.15,5.15 400.00,3.73"/>
    </edge>
    <edge id=":c2_16" function="internal">
        <lane id=":c2_16_0" index="0" speed="9.26" length="12.40" shape="400.00,3.73 401.40,1.40 405.15,-0.85 410.40,-1.60"/>
    </edge>
    <edge id=":c2_4" function="internal">
        <lane id=":c2_4_0" index="0" speed="6.51" length="9.03" shape="410.40,4.80 407.95,5.15 406.20,6.20 405.15,7.95 404.80,10.40"/>
    </edge>
    <edge id=":c2_5" function="internal">
        <lane id=":c2_5_0" index="0" speed="13.89" length="20.80" shape="410.40,4.80 389.60,4.80"/>
        <lane id=":c2_5_1" index="1" speed="13.89" length="20.80" shape="410.40,1.60 389.60,1.60"/>
    </edge>
    <edge id=":c2_7" function="internal">
        <lane id=":c2_7_0" index="0" speed="9.26" length="6.96" shape="410.40,1.60 405.15,0.85 403.73,-0.00"/>
    </edge>
    <edge id=":c2_17" function="internal">
        <lane id=":c2_17_0" index="0" speed="9.26" length="12.40" shape="403.73,-0.00 401.40,-1.40 399.15,-5.15 398.40,-10.40"/>
    </edge>
    <edge id=":c2_8" function="internal">
        <lane id=":c2_8_0" index="0" speed="6.51" length="9.03" shape="404.80,-10.40 405.15,-7.95 406.20,-6.20 407.95,-5.15 410.40,-4.80"/>
    </edge>
    <edge id=":c2_9" function="internal">
        <lane id=":c2_9_0" index="0" speed="13.89" length="20.80" shape="404.80,-10.40 404.80,10.40"/>
        <lane id=":c2_9_1" index="1" speed="13.89" length="20.80" shape="401.60,-10.40 401.60,10.40"/>
    </edge>
    <edge id=":c2_11" function="internal">
        <lane id=":c2_11_0" index="0" speed="9.26" length="6.96" shape="401.60,-10.40 400.85,-5.15 400.00,-3.73"/>
    </edge>
    <edge id=":c2_18" function="internal">
        <lane id=":c2_18_0" index="0" speed="9.26" length="12.40" shape="400.00,-3.73 398.60,-1.40 394.85,0.85 389.60,1.60"/>
    </edge>
    <edge id=":c2_12" function="internal">
        <lane id=":c2_12_0" index="0" speed="6.51" length="9.03" shape="389.60,-4.80 392.05,-5.15 393.80,-6.20 394.85,-7.95 395.20,-10.40"/>
    </edge>
    <edge id=":c2_13" function="internal">
        <lane id=":c2_13_0" index="0" speed="13.89" length="20.80" shape="389.60,-4.80 410.40,-4.80"/>
        <lane id=":c2_13_1" index="1" speed="13.89" length="20.80" shape="389.60,-1.60 410.40,-1.60"/>
    </edge>
    <edge id=":c2_15" function="internal">
        <lane id=":c2_15_0" index="0" speed="9.26" length="6.96" shape="389.60,-1.60 394.85,-0.85 396.27,0.00"/>
    </edge>
    <edge id=":c2_19" function="internal">
        <lane id=":c2_19_0" index="0" speed="9.26" length="12.40" shape="396.27,0.00 398.60,1.40 400.85,5.15 401.60,10.40"/>
    </edge>

    <edge id="b1_c1" from="b1" to="c1" priority="-1">
        <lane id="b1_c1_0" index="0" speed="13.89" length="189.60" shape="4.80,-200.00 4.80,-10.40"/>
        <lane id="b1_c1_1" index="1" speed="13.89" length="189.60" shape="1.60,-200.00 1.60,-10.40"/>
    </edge>
    <edge id="b2_c2" from="b2" to="c2" priority="-1">
        <lane id="b2_c2_0" index="0" speed="13.89" length="189.60" shape="404.80,-200.00 404.80,-10.40"/>
        <lane id="b2_c2_1" index="1" speed="13.89" length="189.60" shape="401.60,-200.00 401.60,-10.40"/>
    </edge>
    <edge id="c1_b1" from="c1" to="b1" priority="-1">
        <lane id="c1_b1_0" index="0" speed="13.89" length="189.60" shape="-4.80,-10.40 -4.80,-200.00"/>
        <lane id="c1_b1_1" index="1" speed="13.89" length="189.60" shape="-1.60,-10.40 -1.60,-200.00"/>
    </edge>
    <edge id="c1_c2" from="c1" to="c2" priority="-1">
        <lane id="c1_c2_0" index="0" speed="13.89" length="379.20" shape="10.40,-4.80 389.60,-4.80"/>
        <lane id="c1_c2_1" index="1" speed="13.89" length="379.20" shape="10.40,-1.60 389.60,-1.60"/>
    </edge>
    <edge id="c1_l1" from="c1" to="l1" priority="-1">
        <lane id="c1_l1_0" index="0" speed="13.89" length="189.60" shape="-10.40,4.80 -200.00,4.80"/>
        <lane id="c1_l1_1" index="1" speed="13.89" length="189.60" shape="-10.40,1.60 -200.00,1.60"/>
    </edge>
    <edge id="c1_t1" from="c1" to="t1" priority="-1">
        <lane id="c1_t1_0" index="0" speed="13.89" length="189.60" shape="4.80,10.40 4.80,200.00"/>
        <lane id="c1_t1_1" index="1" speed="13.89" length="189.60" shape="1.60,10.40 1.60,200.00"/>
    </edge>
    <edge id="c2_b2" from="c2" to="b2" priority="-1">
        <lane id="c2_b2_0" index="0" speed="13.89" length="189.60" shape="395.20,-10.40 395.20,-200.00"/>
        <lane id="c2_b2_1" index="1" speed="13.89" length="189.60" shape="398.40,-10.40 398.40,-200.00"/>
    </edge>
    <edge id="c2_c1" from="c2" to="c1" priority="-1">
        <lane id="c2_c1_0" index="0" speed="13.89" length="379.20" shape="389.60,4.80 10.40,4.80"/>
        <lane id="c2_c1_1" index="1" speed="13.89" length="379.20" shape="389.60,1.60 10.40,1.60"/>
    </edge>
    <edge id="c2_r1" from="c2" to="r2" priority="-1">
        <lane id="c2_r1_0" index="0" speed="13.89" length="189.60" shape="410.40,-4.80 600.00,-4.80"/>
        <lane id="c2_r1_1" index="1" speed="13.89" length="189.60" shape="410.40,-1.60 600.00,-1.60"/>
    </edge>
    <edge id="c2_t2" from="c2" to="t2" priority="-1">
        <lane id="c2_t2_0" index="0" speed="13.89" length="189.60" shape="404.80,10.40 404.80,200.00"/>
        <lane id="c2_t2_1" index="1" speed="13.89" length="189.60" shape="401.60,10.40 401.60,200.00"/>
    </edge>
    <edge id="l1_c1" from="l1" to="c1" priority="-1">
        <lane id="l1_c1_0" index="0" speed="13.89" length="189.60" shape="-200.00,-4.80 -10.40,-4.80"/>
        <lane id="l1_c1_1" index="1" speed="13.89" length="189.60" shape="-200.00,-1.60 -10.40,-1.60"/>
    </edge>
    <edge id="r1_c2" from="r2" to="c2" priority="-1">
        <lane id="r1_c2_0" index="0" speed="13.89" length="189.60" shape="600.00,4.80 410.40,4.80"/>
        <lane id="r1_c2_1" index="1" speed="13.89" length="189.60" shape="600.00,1.60 410.40,1.60"/>
    </edge>
    <edge id="t1_c1" from="t1" to="c1" priority="-1">
        <lane id="t1_c1_0" index="0" speed="13.89" length="189.60" shape="-4.80,200.00 -4.80,10.40"/>
        <lane id="t1_c1_1" index="1" speed="13.89" length="189.60" shape="-1.60,200.00 -1.60,10.40"/>
    </edge>
    <edge id="t2_c2" from="t2" to="c2" priority="-1">
        <lane id="t2_c2_0" index="0" speed="13.89" length="189.60" shape="395.20,200.00 395.20,10.40"/>
        <lane id="t2_c2_1" index="1" speed="13.89" length="189.60" shape="398.40,200.00 398.40,10.40"/>
    </edge>

    <tlLogic id="c1" type="static" programID="0" offset="0">
        <phase duration="42" state="GGGgrrrrGGGgrrrr"/>
        <phase duration="3"  state="yyyyrrrryyyyrrrr"/>
        <phase duration="42" state="rrrrGGGgrrrrGGGg"/>
        <phase duration="3"  state="rrrryyyyrrrryyyy"/>
    </tlLogic>
    <tlLogic id="c2" type="static" programID="0" offset="0">
        <phase duration="42" state="GGGgrrrrGGGgrrrr"/>
        <phase duration="3"  state="yyyyrrrryyyyrrrr"/>
        <phase duration="42" state="rrrrGGGgrrrrGGGg"/>
        <phase duration="3"  state="rrrryyyyrrrryyyy"/>
    </tlLogic>

    <junction id="b1" type="dead_end" x="0.00" y="-200.00" incLanes="c1_b1_0 c1_b1_1" intLanes="" shape="0.00,-200.00 -6.40,-200.00 0.00,-200.00"/>
    <junction id="b2" type="dead_end" x="400.00" y="-200.00" incLanes="c2_b2_0 c2_b2_1" intLanes="" shape="400.00,-200.00 393.60,-200.00 400.00,-200.00"/>
    <junction id="c1" type="traffic_light" x="0.00" y="0.00" incLanes="t1_c1_0 t1_c1_1 c2_c1_0 c2_c1_1 b1_c1_0 b1_c1_1 l1_c1_0 l1_c1_1" intLanes=":c1_0_0 :c1_1_0 :c1_1_1 :c1_16_0 :c1_4_0 :c1_5_0 :c1_5_1 :c1_17_0 :c1_8_0 :c1_9_0 :c1_9_1 :c1_18_0 :c1_12_0 :c1_13_0 :c1_13_1 :c1_19_0" shape="-6.40,10.40 6.40,10.40 6.84,8.18 7.40,7.40 8.18,6.84 9.18,6.51 10.40,6.40 10.40,-6.40 8.18,-6.84 7.40,-7.40 6.84,-8.18 6.51,-9.18 6.40,-10.40 -6.40,-10.40 -6.84,-8.18 -7.40,-7.40 -8.18,-6.84 -9.18,-6.51 -10.40,-6.40 -10.40,6.40 -8.18,6.84 -7.40,7.40 -6.84,8.18 -6.51,9.18">
        <request index="0"  response="0000000000000000" foes="0000000001100000" cont="0"/>
        <request index="1"  response="1000000010000000" foes="1111100011100000" cont="0"/>
        <request index="2"  response="1000000010000000" foes="1111100011100000" cont="0"/>
        <request index="3"  response="1000011010000000" foes="1110011011100000" cont="1"/>
        <request index="4"  response="0000011000000000" foes="0000011000000000" cont="0"/>
        <request index="5"  response="0000111000001111" foes="1000111000001111" cont="0"/>
        <request index="6"  response="0000111000001111" foes="1000111000001111" cont="0"/>
        <request index="7"  response="0110111000001110" foes="0110111000001110" cont="1"/>
        <request index="8"  response="0000000000000000" foes="0110000000000000" cont="0"/>
        <request index="9"  response="1000000010000000" foes="1110000011111000" cont="0"/>
        <request index="10" response="1000000010000000" foes="1110000011111000" cont="0"/>
        <request index="11" response="1000000010000110" foes="1110000011100110" cont="1"/>
        <request index="12" response="0000000000000110" foes="0000000000000110" cont="0"/>
        <request index="13" response="0000111100001110" foes="0000111110001110" cont="0"/>
        <request index="14" response="0000111100001110" foes="0000111110001110" cont="0"/>
        <request index="15" response="0000111001101110" foes="0000111001101110" cont="1"/>
    </junction>
    <junction id="c2" type="traffic_light" x="400.00" y="0.00" incLanes="t2_c2_0 t2_c2_1 r1_c2_0 r1_c2_1 b2_c2_0 b2_c2_1 c1_c2_0 c1_c2_1" intLanes=":c2_0_0 :c2_1_0 :c2_1_1 :c2_16_0 :c2_4_0 :c2_5_0 :c2_5_1 :c2_17_0 :c2_8_0 :c2_9_0 :c2_9_1 :c2_18_0 :c2_12_0 :c2_13_0 :c2_13_1 :c2_19_0" shape="393.60,10.40 406.40,10.40 406.84,8.18 407.40,7.40 408.18,6.84 409.18,6.51 410.40,6.40 410.40,-6.40 408.18,-6.84 407.40,-7.40 406.84,-8.18 406.51,-9.18 406.40,-10.40 393.60,-10.40 393.16,-8.18 392.60,-7.40 391.82,-6.84 390.82,-6.51 389.60,-6.40 389.60,6.40 391.82,6.84 392.60,7.40 393.16,8.18 393.49,9.18">
        <request index="0"  response="0000000000000000" foes="0000000001100000" cont="0"/>
        <request index="1"  response="1000000010000000" foes="1111100011100000" cont="0"/>
        <request index="2"  response="1000000010000000" foes="1111100011100000" cont="0"/>
        <request index="3"  response="1000011010000000" foes="1110011011100000" cont="1"/>
        <request index="4"  response="0000011000000000" foes="0000011000000000" cont="0"/>
        <request index="5"  response="0000111000001111" foes="1000111000001111" cont="0"/>
        <request index="6"  response="0000111000001111" foes="1000111000001111" cont="0"/>
        <request index="7"  response="0110111000001110" foes="0110111000001110" cont="1"/>
        <request index="8"  response="0000000000000000" foes="0110000000000000" cont="0"/>
        <request index="9"  response="1000000010000000" foes="1110000011111000" cont="0"/>
        <request index="10" response="1000000010000000" foes="1110000011111000" cont="0"/>
        <request index="11" response="1000000010000110" foes="1110000011100110" cont="1"/>
        <request index="12" response="0000000000000110" foes="0000000000000110" cont="0"/>
        <request index="13" response="0000111100001110" foes="0000111110001110" cont="0"/>
        <request index="14" response="0000111100001110" foes="0000111110001110" cont="0"/>
        <request index="15" response="0000111001101110" foes="0000111001101110" cont="1"/>
    </junction>
    <junction id="l1" type="dead_end" x="-200.00" y="0.00" incLanes="c1_l1_0 c1_l1_1" intLanes="" shape="-200.00,0.00 -200.00,6.40 -200.00,0.00"/>
    <junction id="r2" type="dead_end" x="600.00" y="0.00" incLanes="c2_r1_0 c2_r1_1" intLanes="" shape="600.00,0.00 600.00,-6.40 600.00,0.00"/>
    <junction id="t1" type="dead_end" x="0.00" y="200.00" incLanes="c1_t1_0 c1_t1_1" intLanes="" shape="0.00,200.00 6.40,200.00 0.00,200.00"/>
    <junction id="t2" type="dead_end" x="400.00" y="200.00" incLanes="c2_t2_0 c2_t2_1" intLanes="" shape="400.00,200.00 406.40,200.00 400.00,200.00"/>

    <junction id=":c1_16_0" type="internal" x="-0.00" y="3.73" incLanes=":c1_3_0 b1_c1_0 b1_c1_1" intLanes=":c1_5_0 :c1_5_1 :c1_7_0 :c1_8_0 :c1_9_0 :c1_9_1 :c1_13_0 :c1_13_1 :c1_15_0"/>
    <junction id=":c1_17_0" type="internal" x="3.73" y="0.00" incLanes=":c1_7_0 l1_c1_0 l1_c1_1" intLanes=":c1_1_0 :c1_1_1 :c1_3_0 :c1_9_0 :c1_9_1 :c1_11_0 :c1_12_0 :c1_13_0 :c1_13_1"/>
    <junction id=":c1_18_0" type="internal" x="0.00" y="-3.73" incLanes=":c1_11_0 t1_c1_0 t1_c1_1" intLanes=":c1_0_0 :c1_1_0 :c1_1_1 :c1_5_0 :c1_5_1 :c1_7_0 :c1_13_0 :c1_13_1 :c1_15_0"/>
    <junction id=":c1_19_0" type="internal" x="-3.73" y="0.00" incLanes=":c1_15_0 c2_c1_0 c2_c1_1" intLanes=":c1_1_0 :c1_1_1 :c1_3_0 :c1_4_0 :c1_5_0 :c1_5_1 :c1_9_0 :c1_9_1 :c1_11_0"/>
    <junction id=":c2_16_0" type="internal" x="400.00" y="3.73" incLanes=":c2_3_0 b2_c2_0 b2_c2_1" intLanes=":c2_5_0 :c2_5_1 :c2_7_0 :c2_8_0 :c2_9_0 :c2_9_1 :c2_13_0 :c2_13_1 :c2_15_0"/>
    <junction id=":c2_17_0" type="internal" x="403.73" y="-0.00" incLanes=":c2_7_0 c1_c2_0 c1_c2_1" intLanes=":c2_1_0 :c2_1_1 :c2_3_0 :c2_9_0 :c2_9_1 :c2_11_0 :c2_12_0 :c2_13_0 :c2_13_1"/>
    <junction id=":c2_18_0" type="internal" x="400.00" y="-3.73" incLanes=":c2_11_0 t2_c2_0 t2_c2_1" intLanes=":c2_0_0 :c2_1_0 :c2_1_1 :c2_5_0 :c2_5_1 :c2_7_0 :c2_13_0 :c2_13_1 :c2_15_0"/>
    <junction id=":c2_19_0" type="internal" x="396.27" y="0.00" incLanes=":c2_15_0 r1_c2_0 r1_c2_1" intLanes=":c2_1_0 :c2_1_1 :c2_3_0 :c2_4_0 :c2_5_0 :c2_5_1 :c2_9_0 :c2_9_1 :c2_11_0"/>

    <connection from="b1_c1" to="c1_c2" fromLane="0" toLane="0" via=":c1_8_0" tl="c1" linkIndex="8" dir="r" state="O"/>
    <connection from="b1_c1" to="c1_t1" fromLane="0" toLane="0" via=":c1_9_0" tl="c1" linkIndex="9" dir="s" state="O"/>
    <connection from="b1_c1" to="c1_t1" fromLane="1" toLane="1" via=":c1_9_1" tl="c1" linkIndex="10" dir="s" state="O"/>
    <connection from="b1_c1" to="c1_l1" fromLane="1" toLane="1" via=":c1_11_0" tl="c1" linkIndex="11" dir="l" state="o"/>
    <connection from="b2_c2" to="c2_r1" fromLane="0" toLane="0" via=":c2_8_0" tl="c2" linkIndex="8" dir="r" state="O"/>
    <connection from="b2_c2" to="c2_t2" fromLane="0" toLane="0" via=":c2_9_0" tl="c2" linkIndex="9" dir="s" state="O"/>
    <connection from="b2_c2" to="c2_t2" fromLane="1" toLane="1" via=":c2_9_1" tl="c2" linkIndex="10" dir="s" state="O"/>
    <connection from="b2_c2" to="c2_c1" fromLane="1" toLane="1" via=":c2_11_0" tl="c2" linkIndex="11" dir="l" state="o"/>
    <connection from="c1_c2" to="c2_b2" fromLane="0" toLane="0" via=":c2_12_0" tl="c2" linkIndex="12" dir="r" state="o"/>
    <connection from="c1_c2" to="c2_r1" fromLane="0" toLane="0" via=":c2_13_0" tl="c2" linkIndex="13" dir="s" state="o"/>
    <connection from="c1_c2" to="c2_r1" fromLane="1" toLane="1" via=":c2_13_1" tl="c2" linkIndex="14" dir="s" state="o"/>
    <connection from="c1_c2" to="c2_t2" fromLane="1" toLane="1" via=":c2_15_0" tl="c2" linkIndex="15" dir="l" state="o"/>
    <connection from="c2_c1" to="c1_t1" fromLane="0" toLane="0" via=":c1_4_0" tl="c1" linkIndex="4" dir="r" state="o"/>
    <connection from="c2_c1" to="c1_l1" fromLane="0" toLane="0" via=":c1_5_0" tl="c1" linkIndex="5" dir="s" state="o"/>
    <connection from="c2_c1" to="c1_l1" fromLane="1" toLane="1" via=":c1_5_1" tl="c1" linkIndex="6" dir="s" state="o"/>
    <connection from="c2_c1" to="c1_b1" fromLane="1" toLane="1" via=":c1_7_0" tl="c1" linkIndex="7" dir="l" state="o"/>
    <connection from="l1_c1" to="c1_b1" fromLane="0" toLane="0" via=":c1_12_0" tl="c1" linkIndex="12" dir="r" state="o"/>
    <connection from="l1_c1" to="c1_c2" fromLane="0" toLane="0" via=":c1_13_0" tl="c1" linkIndex="13" dir="s" state="o"/>
    <connection from="l1_c1" to="c1_c2" fromLane="1" toLane="1" via=":c1_13_1" tl="c1" linkIndex="14" dir="s" state="o"/>
    <connection from="l1_c1" to="c1_t1" fromLane="1" toLane="1" via=":c1_15_0" tl="c1" linkIndex="15" dir="l" state="o"/>
    <connection from="r1_c2" to="c2_t2" fromLane="0" toLane="0" via=":c2_4_0" tl="c2" linkIndex="4" dir="r" state="o"/>
    <connection from="r1_c2" to="c2_c1" fromLane="0" toLane="0" via=":c2_5_0" tl="c2" linkIndex="5" dir="s" state="o"/>
    <connection from="r1_c2" to="c2_c1" fromLane="1" toLane="1" via=":c2_5_1" tl="c2" linkIndex="6" dir="s" state="o"/>
    <connection from="r1_c2" to="c2_b2" fromLane="1" toLane="1" via=":c2_7_0" tl="c2" linkIndex="7" dir="l" state="o"/>
    <connection from="t1_c1" to="c1_l1" fromLane="0" toLane="0" via=":c1_0_0" tl="c1" linkIndex="0" dir="r" state="O"/>
    <connection from="t1_c1" to="c1_b1" fromLane="0" toLane="0" via=":c1_1_0" tl="c1" linkIndex="1" dir="s" state="O"/>
    <connection from="t1_c1" to="c1_b1" fromLane="1" toLane="1" via=":c1_1_1" tl="c1" linkIndex="2" dir="s" state="O"/>
    <connection from="t1_c1" to="c1_c2" fromLane="1" toLane="1" via=":c1_3_0" tl="c1" linkIndex="3" dir="l" state="o"/>
    <connection from="t2_c2" to="c2_c1" fromLane="0" toLane="0" via=":c2_0_0" tl="c2" linkIndex="0" dir="r" state="O"/>
    <connection from="t2_c2" to="c2_b2" fromLane="0" toLane="0" via=":c2_1_0" tl="c2" linkIndex="1" dir="s" state="O"/>
    <connection from="t2_c2" to="c2_b2" fromLane="1" toLane="1" via=":c2_1_1" tl="c2" linkIndex="2" dir="s" state="O"/>
    <connection from="t2_c2" to="c2_r1" fromLane="1" toLane="1" via=":c2_3_0" tl="c2" linkIndex="3" dir="l" state="o"/>

    <connection from=":c1_0" to="c1_l1" fromLane="0" toLane="0" dir="r" state="M"/>
    <connection from=":c1_1" to="c1_b1" fromLane="0" toLane="0" dir="s" state="M"/>
    <connection from=":c1_1" to="c1_b1" fromLane="1" toLane="1" dir="s" state="M"/>
    <connection from=":c1_3" to="c1_c2" fromLane="0" toLane="1" via=":c1_16_0" dir="l" state="m"/>
    <connection from=":c1_16" to="c1_c2" fromLane="0" toLane="1" dir="l" state="M"/>
    <connection from=":c1_4" to="c1_t1" fromLane="0" toLane="0" dir="r" state="M"/>
    <connection from=":c1_5" to="c1_l1" fromLane="0" toLane="0" dir="s" state="M"/>
    <connection from=":c1_5" to="c1_l1" fromLane="1" toLane="1" dir="s" state="M"/>
    <connection from=":c1_7" to="c1_b1" fromLane="0" toLane="1" via=":c1_17_0" dir="l" state="m"/>
    <connection from=":c1_17" to="c1_b1" fromLane="0" toLane="1" dir="l" state="M"/>
    <connection from=":c1_8" to="c1_c2" fromLane="0" toLane="0" dir="r" state="M"/>
    <connection from=":c1_9" to="c1_t1" fromLane="0" toLane="0" dir="s" state="M"/>
    <connection from=":c1_9" to="c1_t1" fromLane="1" toLane="1" dir="s" state="M"/>
    <connection from=":c1_11" to="c1_l1" fromLane="0" toLane="1" via=":c1_18_0" dir="l" state="m"/>
    <connection from=":c1_18" to="c1_l1" fromLane="0" toLane="1" dir="l" state="M"/>
    <connection from=":c1_12" to="c1_b1" fromLane="0" toLane="0" dir="r" state="M"/>
    <connection from=":c1_13" to="c1_c2" fromLane="0" toLane="0" dir="s" state="M"/>
    <connection from=":c1_13" to="c1_c2" fromLane="1" toLane="1" dir="s" state="M"/>
    <connection from=":c1_15" to="c1_t1" fromLane="0" toLane="1" via=":c1_19_0" dir="l" state="m"/>
    <connection from=":c1_19" to="c1_t1" fromLane="0" toLane="1" dir="l" state="M"/>
    <connection from=":c2_0" to="c2_c1" fromLane="0" toLane="0" dir="r" state="M"/>
    <connection from=":c2_1" to="c2_b2" fromLane="0" toLane="0" dir="s" state="M"/>
    <connection from=":c2_1" to="c2_b2" fromLane="1" toLane="1" dir="s" state="M"/>
    <connection from=":c2_3" to="c2_r1" fromLane="0" toLane="1" via=":c2_16_0" dir="l" state="m"/>
    <connection from=":c2_16" to="c2_r1" fromLane="0" toLane="1" dir="l" state="M"/>
    <connection from=":c2_4" to="c2_t2" fromLane="0" toLane="0" dir="r" state="M"/>
    <connection from=":c2_5" to="c2_c1" fromLane="0" toLane="0" dir="s" state="M"/>
    <connection from=":c2_5" to="c2_c1" fromLane="1" toLane="1" dir="s" state="M"/>
    <connection from=":c2_7" to="c2_b2" fromLane="0" toLane="1" via=":c2_17_0" dir="l" state="m"/>
    <connection from=":c2_17" to="c2_b2" fromLane="0" toLane="1" dir="l" state="M"/>
    <connection from=":c2_8" to="c2_r1" fromLane="0" toLane="0" dir="r" state="M"/>
    <connection from=":c2_9" to="c2_t2" fromLane="0" toLane="0" dir="s" state="M"/>
    <connection from=":c2_9" to="c2_t2" fromLane="1" toLane="1" dir="s" state="M"/>
    <connection from=":c2_11" to="c2_c1" fromLane="0" toLane="1" via=":c2_18_0" dir="l" state="m"/>
    <connection from=":c2_18" to="c2_c1" fromLane="0" toLane="1" dir="l" state="M"/>
    <connection from=":c2_12" to="c2_b2" fromLane="0" toLane="0" dir="r" state="M"/>
    <connection from=":c2_13" to="c2_r1" fromLane="0" toLane="0" dir="s" state="M"/>
    <connection from=":c2_13" to="c2_r1" fromLane="1" toLane="1" dir="s" state="M"/>
    <connection from=":c2_15" to="c2_t2" fromLane="0" toLane="1" via=":c2_19_0" dir="l" state="m"/>
    <connection from=":c2_19" to="c2_t2" fromLane="0" toLane="1" dir="l" state="M"/>

</net>
