<configuration>
    <input>
       <net-file value="second.net.xml"/>
       <route-files value="single.rou.xml"/>
    </input>
</configuration>