<?xml version="1.0" encoding="UTF-8"?>

<!-- generated on 12/20/20 19:19:56 by Eclipse SUMO netedit Version 1.6.0
<configuration xmlns:xsi="http://www.w3.org/2001/XMLSchema-instance" xsi:noNamespaceSchemaLocation="http://sumo.dlr.de/xsd/netconvertConfiguration.xsd">

    <input>
        <sumo-net-file value="C:\Users\arai-lab\Documents\programming\study\iee\kalman\single.net.xml"/>
    </input>

    <output>
        <output-file value="C:\Users\arai-lab\Documents\programming\study\iee\kalman\single.net.xml"/>
    </output>

    <processing>
        <geometry.min-radius.fix.railways value="false"/>
        <geometry.max-grade.fix value="false"/>
        <offset.disable-normalization value="true"/>
        <lefthand value="false"/>
    </processing>

    <junctions>
        <no-turnarounds value="true"/>
        <junctions.corner-detail value="5"/>
        <junctions.limit-turn-speed value="5.5"/>
        <rectangular-lane-cut value="false"/>
    </junctions>

    <pedestrian>
        <walkingareas value="false"/>
    </pedestrian>

    <report>
        <aggregate-warnings value="5"/>
    </report>

</configuration>
-->

<net version="1.6" junctionCornerDetail="5" limitTurnSpeed="5.50" xmlns:xsi="http://www.w3.org/2001/XMLSchema-instance" xsi:noNamespaceSchemaLocation="http://sumo.dlr.de/xsd/net_file.xsd">

    <location netOffset="0.00,0.00" convBoundary="-400.00,-400.00,400.00,400.00" origBoundary="-10000000000.00,-10000000000.00,10000000000.00,10000000000.00" projParameter="!"/>

    <edge id=":b_0" function="internal">
        <lane id=":b_0_0" index="0" speed="13.89" length="0.10" shape="-8.00,-200.00 -8.00,-200.00"/>
        <lane id=":b_0_1" index="1" speed="13.89" length="0.10" shape="-4.80,-200.00 -4.80,-200.00"/>
        <lane id=":b_0_2" index="2" speed="13.89" length="0.10" shape="-1.60,-200.00 -1.60,-200.00"/>
    </edge>
    <edge id=":b_3" function="internal">
        <lane id=":b_3_0" index="0" speed="13.89" length="0.10" shape="8.00,-200.00 8.00,-200.00"/>
        <lane id=":b_3_1" index="1" speed="13.89" length="0.10" shape="4.80,-200.00 4.80,-200.00"/>
        <lane id=":b_3_2" index="2" speed="13.89" length="0.10" shape="1.60,-200.00 1.60,-200.00"/>
    </edge>
    <edge id=":c_0" function="internal">
        <lane id=":c_0_0" index="0" speed="6.51" length="9.03" shape="-8.00,13.60 -8.35,11.15 -9.40,9.40 -11.15,8.35 -13.60,8.00"/>
    </edge>
    <edge id=":c_1" function="internal">
        <lane id=":c_1_0" index="0" speed="13.89" length="27.20" shape="-8.00,13.60 -8.00,-13.60"/>
        <lane id=":c_1_1" index="1" speed="13.89" length="27.20" shape="-4.80,13.60 -4.80,-13.60"/>
        <lane id=":c_1_2" index="2" speed="13.89" length="27.20" shape="-1.60,13.60 -1.60,-13.60"/>
    </edge>
    <edge id=":c_4" function="internal">
        <lane id=":c_4_0" index="0" speed="10.36" length="7.98" shape="-1.60,13.60 -0.65,6.95 -0.00,5.87"/>
    </edge>
    <edge id=":c_20" function="internal">
        <lane id=":c_20_0" index="0" speed="10.36" length="16.53" shape="-0.00,5.87 2.20,2.20 6.95,-0.65 13.60,-1.60"/>
    </edge>
    <edge id=":c_5" function="internal">
        <lane id=":c_5_0" index="0" speed="6.51" length="9.03" shape="13.60,8.00 11.15,8.35 9.40,9.40 8.35,11.15 8.00,13.60"/>
    </edge>
    <edge id=":c_6" function="internal">
        <lane id=":c_6_0" index="0" speed="13.89" length="27.20" shape="13.60,8.00 -13.60,8.00"/>
        <lane id=":c_6_1" index="1" speed="13.89" length="27.20" shape="13.60,4.80 -13.60,4.80"/>
        <lane id=":c_6_2" index="2" speed="13.89" length="27.20" shape="13.60,1.60 -13.60,1.60"/>
    </edge>
    <edge id=":c_9" function="internal">
        <lane id=":c_9_0" index="0" speed="10.36" length="7.98" shape="13.60,1.60 6.95,0.65 5.87,0.00"/>
    </edge>
    <edge id=":c_21" function="internal">
        <lane id=":c_21_0" index="0" speed="10.36" length="16.53" shape="5.87,0.00 2.20,-2.20 -0.65,-6.95 -1.60,-13.60"/>
    </edge>
    <edge id=":c_10" function="internal">
        <lane id=":c_10_0" index="0" speed="6.51" length="9.03" shape="8.00,-13.60 8.35,-11.15 9.40,-9.40 11.15,-8.35 13.60,-8.00"/>
    </edge>
    <edge id=":c_11" function="internal">
        <lane id=":c_11_0" index="0" speed="13.89" length="27.20" shape="8.00,-13.60 8.00,13.60"/>
        <lane id=":c_11_1" index="1" speed="13.89" length="27.20" shape="4.80,-13.60 4.80,13.60"/>
        <lane id=":c_11_2" index="2" speed="13.89" length="27.20" shape="1.60,-13.60 1.60,13.60"/>
    </edge>
    <edge id=":c_14" function="internal">
        <lane id=":c_14_0" index="0" speed="10.36" length="7.98" shape="1.60,-13.60 0.65,-6.95 0.00,-5.87"/>
    </edge>
    <edge id=":c_22" function="internal">
        <lane id=":c_22_0" index="0" speed="10.36" length="16.53" shape="0.00,-5.87 -2.20,-2.20 -6.95,0.65 -13.60,1.60"/>
    </edge>
    <edge id=":c_15" function="internal">
        <lane id=":c_15_0" index="0" speed="6.51" length="9.03" shape="-13.60,-8.00 -11.15,-8.35 -9.40,-9.40 -8.35,-11.15 -8.00,-13.60"/>
    </edge>
    <edge id=":c_16" function="internal">
        <lane id=":c_16_0" index="0" speed="13.89" length="27.20" shape="-13.60,-8.00 13.60,-8.00"/>
        <lane id=":c_16_1" index="1" speed="13.89" length="27.20" shape="-13.60,-4.80 13.60,-4.80"/>
        <lane id=":c_16_2" index="2" speed="13.89" length="27.20" shape="-13.60,-1.60 13.60,-1.60"/>
    </edge>
    <edge id=":c_19" function="internal">
        <lane id=":c_19_0" index="0" speed="10.36" length="7.98" shape="-13.60,-1.60 -6.95,-0.65 -5.87,-0.00"/>
    </edge>
    <edge id=":c_23" function="internal">
        <lane id=":c_23_0" index="0" speed="10.36" length="16.53" shape="-5.87,-0.00 -2.20,2.20 0.65,6.95 1.60,13.60"/>
    </edge>
    <edge id=":l_0" function="internal">
        <lane id=":l_0_0" index="0" speed="13.89" length="0.10" shape="-200.00,8.00 -200.00,8.00"/>
        <lane id=":l_0_1" index="1" speed="13.89" length="0.10" shape="-200.00,4.80 -200.00,4.80"/>
        <lane id=":l_0_2" index="2" speed="13.89" length="0.10" shape="-200.00,1.60 -200.00,1.60"/>
    </edge>
    <edge id=":l_3" function="internal">
        <lane id=":l_3_0" index="0" speed="13.89" length="0.10" shape="-200.00,-8.00 -200.00,-8.00"/>
        <lane id=":l_3_1" index="1" speed="13.89" length="0.10" shape="-200.00,-4.80 -200.00,-4.80"/>
        <lane id=":l_3_2" index="2" speed="13.89" length="0.10" shape="-200.00,-1.60 -200.00,-1.60"/>
    </edge>
    <edge id=":r_0" function="internal">
        <lane id=":r_0_0" index="0" speed="13.89" length="0.10" shape="200.00,8.00 200.00,8.00"/>
        <lane id=":r_0_1" index="1" speed="13.89" length="0.10" shape="200.00,4.80 200.00,4.80"/>
        <lane id=":r_0_2" index="2" speed="13.89" length="0.10" shape="200.00,1.60 200.00,1.60"/>
    </edge>
    <edge id=":r_3" function="internal">
        <lane id=":r_3_0" index="0" speed="13.89" length="0.10" shape="200.00,-8.00 200.00,-8.00"/>
        <lane id=":r_3_1" index="1" speed="13.89" length="0.10" shape="200.00,-4.80 200.00,-4.80"/>
        <lane id=":r_3_2" index="2" speed="13.89" length="0.10" shape="200.00,-1.60 200.00,-1.60"/>
    </edge>
    <edge id=":t_0" function="internal">
        <lane id=":t_0_0" index="0" speed="13.89" length="0.10" shape="-8.00,200.00 -8.00,200.00"/>
        <lane id=":t_0_1" index="1" speed="13.89" length="0.10" shape="-4.80,200.00 -4.80,200.00"/>
        <lane id=":t_0_2" index="2" speed="13.89" length="0.10" shape="-1.60,200.00 -1.60,200.00"/>
    </edge>
    <edge id=":t_3" function="internal">
        <lane id=":t_3_0" index="0" speed="13.89" length="0.10" shape="8.00,200.00 8.00,200.00"/>
        <lane id=":t_3_1" index="1" speed="13.89" length="0.10" shape="4.80,200.00 4.80,200.00"/>
        <lane id=":t_3_2" index="2" speed="13.89" length="0.10" shape="1.60,200.00 1.60,200.00"/>
    </edge>

    <edge id="b_bb" from="b" to="bb" priority="-1">
        <lane id="b_bb_0" index="0" speed="13.89" length="200.00" shape="-8.00,-200.00 -8.00,-400.00"/>
        <lane id="b_bb_1" index="1" speed="13.89" length="200.00" shape="-4.80,-200.00 -4.80,-400.00"/>
        <lane id="b_bb_2" index="2" speed="13.89" length="200.00" shape="-1.60,-200.00 -1.60,-400.00"/>
    </edge>
    <edge id="b_c" from="b" to="c" priority="-1">
        <lane id="b_c_0" index="0" speed="13.89" length="186.40" shape="8.00,-200.00 8.00,-13.60"/>
        <lane id="b_c_1" index="1" speed="13.89" length="186.40" shape="4.80,-200.00 4.80,-13.60"/>
        <lane id="b_c_2" index="2" speed="13.89" length="186.40" shape="1.60,-200.00 1.60,-13.60"/>
    </edge>
    <edge id="bb_b" from="bb" to="b" priority="-1">
        <lane id="bb_b_0" index="0" speed="13.89" length="200.00" shape="8.00,-400.00 8.00,-200.00"/>
        <lane id="bb_b_1" index="1" speed="13.89" length="200.00" shape="4.80,-400.00 4.80,-200.00"/>
        <lane id="bb_b_2" index="2" speed="13.89" length="200.00" shape="1.60,-400.00 1.60,-200.00"/>
    </edge>
    <edge id="c_b" from="c" to="b" priority="-1">
        <lane id="c_b_0" index="0" speed="13.89" length="186.40" shape="-8.00,-13.60 -8.00,-200.00"/>
        <lane id="c_b_1" index="1" speed="13.89" length="186.40" shape="-4.80,-13.60 -4.80,-200.00"/>
        <lane id="c_b_2" index="2" speed="13.89" length="186.40" shape="-1.60,-13.60 -1.60,-200.00"/>
    </edge>
    <edge id="c_l" from="c" to="l" priority="-1">
        <lane id="c_l_0" index="0" speed="13.89" length="186.40" shape="-13.60,8.00 -200.00,8.00"/>
        <lane id="c_l_1" index="1" speed="13.89" length="186.40" shape="-13.60,4.80 -200.00,4.80"/>
        <lane id="c_l_2" index="2" speed="13.89" length="186.40" shape="-13.60,1.60 -200.00,1.60"/>
    </edge>
    <edge id="c_r" from="c" to="r" priority="-1">
        <lane id="c_r_0" index="0" speed="13.89" length="186.40" shape="13.60,-8.00 200.00,-8.00"/>
        <lane id="c_r_1" index="1" speed="13.89" length="186.40" shape="13.60,-4.80 200.00,-4.80"/>
        <lane id="c_r_2" index="2" speed="13.89" length="186.40" shape="13.60,-1.60 200.00,-1.60"/>
    </edge>
    <edge id="c_t" from="c" to="t" priority="-1">
        <lane id="c_t_0" index="0" speed="13.89" length="186.40" shape="8.00,13.60 8.00,200.00"/>
        <lane id="c_t_1" index="1" speed="13.89" length="186.40" shape="4.80,13.60 4.80,200.00"/>
        <lane id="c_t_2" index="2" speed="13.89" length="186.40" shape="1.60,13.60 1.60,200.00"/>
    </edge>
    <edge id="l_c" from="l" to="c" priority="-1">
        <lane id="l_c_0" index="0" speed="13.89" length="186.40" shape="-200.00,-8.00 -13.60,-8.00"/>
        <lane id="l_c_1" index="1" speed="13.89" length="186.40" shape="-200.00,-4.80 -13.60,-4.80"/>
        <lane id="l_c_2" index="2" speed="13.89" length="186.40" shape="-200.00,-1.60 -13.60,-1.60"/>
    </edge>
    <edge id="l_ll" from="l" to="ll" priority="-1">
        <lane id="l_ll_0" index="0" speed="13.89" length="200.00" shape="-200.00,8.00 -400.00,8.00"/>
        <lane id="l_ll_1" index="1" speed="13.89" length="200.00" shape="-200.00,4.80 -400.00,4.80"/>
        <lane id="l_ll_2" index="2" speed="13.89" length="200.00" shape="-200.00,1.60 -400.00,1.60"/>
    </edge>
    <edge id="ll_l" from="ll" to="l" priority="-1">
        <lane id="ll_l_0" index="0" speed="13.89" length="200.00" shape="-400.00,-8.00 -200.00,-8.00"/>
        <lane id="ll_l_1" index="1" speed="13.89" length="200.00" shape="-400.00,-4.80 -200.00,-4.80"/>
        <lane id="ll_l_2" index="2" speed="13.89" length="200.00" shape="-400.00,-1.60 -200.00,-1.60"/>
    </edge>
    <edge id="r_c" from="r" to="c" priority="-1">
        <lane id="r_c_0" index="0" speed="13.89" length="186.40" shape="200.00,8.00 13.60,8.00"/>
        <lane id="r_c_1" index="1" speed="13.89" length="186.40" shape="200.00,4.80 13.60,4.80"/>
        <lane id="r_c_2" index="2" speed="13.89" length="186.40" shape="200.00,1.60 13.60,1.60"/>
    </edge>
    <edge id="r_rr" from="r" to="rr" priority="-1">
        <lane id="r_rr_0" index="0" speed="13.89" length="200.00" shape="200.00,-8.00 400.00,-8.00"/>
        <lane id="r_rr_1" index="1" speed="13.89" length="200.00" shape="200.00,-4.80 400.00,-4.80"/>
        <lane id="r_rr_2" index="2" speed="13.89" length="200.00" shape="200.00,-1.60 400.00,-1.60"/>
    </edge>
    <edge id="rr_r" from="rr" to="r" priority="-1">
        <lane id="rr_r_0" index="0" speed="13.89" length="200.00" shape="400.00,8.00 200.00,8.00"/>
        <lane id="rr_r_1" index="1" speed="13.89" length="200.00" shape="400.00,4.80 200.00,4.80"/>
        <lane id="rr_r_2" index="2" speed="13.89" length="200.00" shape="400.00,1.60 200.00,1.60"/>
    </edge>
    <edge id="t_c" from="t" to="c" priority="-1">
        <lane id="t_c_0" index="0" speed="13.89" length="186.40" shape="-8.00,200.00 -8.00,13.60"/>
        <lane id="t_c_1" index="1" speed="13.89" length="186.40" shape="-4.80,200.00 -4.80,13.60"/>
        <lane id="t_c_2" index="2" speed="13.89" length="186.40" shape="-1.60,200.00 -1.60,13.60"/>
    </edge>
    <edge id="t_tt" from="t" to="tt" priority="-1">
        <lane id="t_tt_0" index="0" speed="13.89" length="200.00" shape="8.00,200.00 8.00,400.00"/>
        <lane id="t_tt_1" index="1" speed="13.89" length="200.00" shape="4.80,200.00 4.80,400.00"/>
        <lane id="t_tt_2" index="2" speed="13.89" length="200.00" shape="1.60,200.00 1.60,400.00"/>
    </edge>
    <edge id="tt_t" from="tt" to="t" priority="-1">
        <lane id="tt_t_0" index="0" speed="13.89" length="200.00" shape="-8.00,400.00 -8.00,200.00"/>
        <lane id="tt_t_1" index="1" speed="13.89" length="200.00" shape="-4.80,400.00 -4.80,200.00"/>
        <lane id="tt_t_2" index="2" speed="13.89" length="200.00" shape="-1.60,400.00 -1.60,200.00"/>
    </edge>

    <tlLogic id="c" type="static" programID="1" offset="0">
        <phase duration="42" state="GGGGgrrrrrGGGGgrrrrr"/>
        <phase duration="3"  state="yyyyyrrrrryyyyyrrrrr"/>
        <phase duration="42" state="rrrrrGGGGgrrrrrGGGGg"/>
        <phase duration="3"  state="rrrrryyyyyrrrrryyyyy"/>
    </tlLogic>

    <junction id="b" type="priority" x="0.00" y="-200.00" incLanes="c_b_0 c_b_1 c_b_2 bb_b_0 bb_b_1 bb_b_2" intLanes=":b_0_0 :b_0_1 :b_0_2 :b_3_0 :b_3_1 :b_3_2" shape="-9.60,-200.00 9.60,-200.00 -9.60,-200.00">
        <request index="0" response="000000" foes="000000" cont="0"/>
        <request index="1" response="000000" foes="000000" cont="0"/>
        <request index="2" response="000000" foes="000000" cont="0"/>
        <request index="3" response="000000" foes="000000" cont="0"/>
        <request index="4" response="000000" foes="000000" cont="0"/>
        <request index="5" response="000000" foes="000000" cont="0"/>
    </junction>
    <junction id="bb" type="dead_end" x="0.00" y="-400.00" incLanes="b_bb_0 b_bb_1 b_bb_2" intLanes="" shape="0.00,-400.00 -9.60,-400.00 0.00,-400.00"/>
    <junction id="c" type="traffic_light" x="0.00" y="0.00" incLanes="t_c_0 t_c_1 t_c_2 r_c_0 r_c_1 r_c_2 b_c_0 b_c_1 b_c_2 l_c_0 l_c_1 l_c_2" intLanes=":c_0_0 :c_1_0 :c_1_1 :c_1_2 :c_20_0 :c_5_0 :c_6_0 :c_6_1 :c_6_2 :c_21_0 :c_10_0 :c_11_0 :c_11_1 :c_11_2 :c_22_0 :c_15_0 :c_16_0 :c_16_1 :c_16_2 :c_23_0" shape="-9.60,13.60 9.60,13.60 10.04,11.38 10.60,10.60 11.38,10.04 12.38,9.71 13.60,9.60 13.60,-9.60 11.38,-10.04 10.60,-10.60 10.04,-11.38 9.71,-12.38 9.60,-13.60 -9.60,-13.60 -10.04,-11.38 -10.60,-10.60 -11.38,-10.04 -12.38,-9.71 -13.60,-9.60 -13.60,9.60 -11.38,10.04 -10.60,10.60 -10.04,11.38 -9.71,12.38">
        <request index="0"  response="00000000000000000000" foes="00000000000111000000" cont="0"/>
        <request index="1"  response="10000000001000000000" foes="11111100001111000000" cont="0"/>
        <request index="2"  response="10000000001000000000" foes="11111100001111000000" cont="0"/>
        <request index="3"  response="10000000001000000000" foes="11111100001111000000" cont="0"/>
        <request index="4"  response="10000011101000000000" foes="11110011101111000000" cont="1"/>
        <request index="5"  response="00000011100000000000" foes="00000011100000000000" cont="0"/>
        <request index="6"  response="00000111100000011111" foes="10000111100000011111" cont="0"/>
        <request index="7"  response="00000111100000011111" foes="10000111100000011111" cont="0"/>
        <request index="8"  response="00000111100000011111" foes="10000111100000011111" cont="0"/>
        <request index="9"  response="01110111100000011110" foes="01110111100000011110" cont="1"/>
        <request index="10" response="00000000000000000000" foes="01110000000000000000" cont="0"/>
        <request index="11" response="10000000001000000000" foes="11110000001111110000" cont="0"/>
        <request index="12" response="10000000001000000000" foes="11110000001111110000" cont="0"/>
        <request index="13" response="10000000001000000000" foes="11110000001111110000" cont="0"/>
        <request index="14" response="10000000001000001110" foes="11110000001111001110" cont="1"/>
        <request index="15" response="00000000000000001110" foes="00000000000000001110" cont="0"/>
        <request index="16" response="00000111110000011110" foes="00000111111000011110" cont="0"/>
        <request index="17" response="00000111110000011110" foes="00000111111000011110" cont="0"/>
        <request index="18" response="00000111110000011110" foes="00000111111000011110" cont="0"/>
        <request index="19" response="00000111100111011110" foes="00000111100111011110" cont="1"/>
    </junction>
    <junction id="l" type="priority" x="-200.00" y="0.00" incLanes="c_l_0 c_l_1 c_l_2 ll_l_0 ll_l_1 ll_l_2" intLanes=":l_0_0 :l_0_1 :l_0_2 :l_3_0 :l_3_1 :l_3_2" shape="-200.00,9.60 -200.00,-9.60 -200.00,9.60">
        <request index="0" response="000000" foes="000000" cont="0"/>
        <request index="1" response="000000" foes="000000" cont="0"/>
        <request index="2" response="000000" foes="000000" cont="0"/>
        <request index="3" response="000000" foes="000000" cont="0"/>
        <request index="4" response="000000" foes="000000" cont="0"/>
        <request index="5" response="000000" foes="000000" cont="0"/>
    </junction>
    <junction id="ll" type="dead_end" x="-400.00" y="0.00" incLanes="l_ll_0 l_ll_1 l_ll_2" intLanes="" shape="-400.00,0.00 -400.00,9.60 -400.00,0.00"/>
    <junction id="r" type="priority" x="200.00" y="0.00" incLanes="rr_r_0 rr_r_1 rr_r_2 c_r_0 c_r_1 c_r_2" intLanes=":r_0_0 :r_0_1 :r_0_2 :r_3_0 :r_3_1 :r_3_2" shape="200.00,9.60 200.00,-9.60 200.00,9.60">
        <request index="0" response="000000" foes="000000" cont="0"/>
        <request index="1" response="000000" foes="000000" cont="0"/>
        <request index="2" response="000000" foes="000000" cont="0"/>
        <request index="3" response="000000" foes="000000" cont="0"/>
        <request index="4" response="000000" foes="000000" cont="0"/>
        <request index="5" response="000000" foes="000000" cont="0"/>
    </junction>
    <junction id="rr" type="dead_end" x="400.00" y="0.00" incLanes="r_rr_0 r_rr_1 r_rr_2" intLanes="" shape="400.00,0.00 400.00,-9.60 400.00,0.00"/>
    <junction id="t" type="priority" x="0.00" y="200.00" incLanes="tt_t_0 tt_t_1 tt_t_2 c_t_0 c_t_1 c_t_2" intLanes=":t_0_0 :t_0_1 :t_0_2 :t_3_0 :t_3_1 :t_3_2" shape="-9.60,200.00 9.60,200.00 -9.60,200.00">
        <request index="0" response="000000" foes="000000" cont="0"/>
        <request index="1" response="000000" foes="000000" cont="0"/>
        <request index="2" response="000000" foes="000000" cont="0"/>
        <request index="3" response="000000" foes="000000" cont="0"/>
        <request index="4" response="000000" foes="000000" cont="0"/>
        <request index="5" response="000000" foes="000000" cont="0"/>
    </junction>
    <junction id="tt" type="dead_end" x="0.00" y="400.00" incLanes="t_tt_0 t_tt_1 t_tt_2" intLanes="" shape="0.00,400.00 9.60,400.00 0.00,400.00"/>

    <junction id=":c_20_0" type="internal" x="-0.00" y="5.87" incLanes=":c_4_0 b_c_0 b_c_1 b_c_2" intLanes=":c_6_0 :c_6_1 :c_6_2 :c_9_0 :c_10_0 :c_11_0 :c_11_1 :c_11_2 :c_16_0 :c_16_1 :c_16_2 :c_19_0"/>
    <junction id=":c_21_0" type="internal" x="5.87" y="0.00" incLanes=":c_9_0 l_c_0 l_c_1 l_c_2" intLanes=":c_1_0 :c_1_1 :c_1_2 :c_4_0 :c_11_0 :c_11_1 :c_11_2 :c_14_0 :c_15_0 :c_16_0 :c_16_1 :c_16_2"/>
    <junction id=":c_22_0" type="internal" x="0.00" y="-5.87" incLanes=":c_14_0 t_c_0 t_c_1 t_c_2" intLanes=":c_0_0 :c_1_0 :c_1_1 :c_1_2 :c_6_0 :c_6_1 :c_6_2 :c_9_0 :c_16_0 :c_16_1 :c_16_2 :c_19_0"/>
    <junction id=":c_23_0" type="internal" x="-5.87" y="-0.00" incLanes=":c_19_0 r_c_0 r_c_1 r_c_2" intLanes=":c_1_0 :c_1_1 :c_1_2 :c_4_0 :c_5_0 :c_6_0 :c_6_1 :c_6_2 :c_11_0 :c_11_1 :c_11_2 :c_14_0"/>

    <connection from="b_c" to="c_r" fromLane="0" toLane="0" via=":c_10_0" tl="c" linkIndex="10" dir="r" state="O"/>
    <connection from="b_c" to="c_t" fromLane="0" toLane="0" via=":c_11_0" tl="c" linkIndex="11" dir="s" state="O"/>
    <connection from="b_c" to="c_t" fromLane="1" toLane="1" via=":c_11_1" tl="c" linkIndex="12" dir="s" state="O"/>
    <connection from="b_c" to="c_t" fromLane="2" toLane="2" via=":c_11_2" tl="c" linkIndex="13" dir="s" state="O"/>
    <connection from="b_c" to="c_l" fromLane="2" toLane="2" via=":c_14_0" tl="c" linkIndex="14" dir="l" state="o"/>
    <connection from="bb_b" to="b_c" fromLane="0" toLane="0" via=":b_3_0" dir="s" state="M"/>
    <connection from="bb_b" to="b_c" fromLane="1" toLane="1" via=":b_3_1" dir="s" state="M"/>
    <connection from="bb_b" to="b_c" fromLane="2" toLane="2" via=":b_3_2" dir="s" state="M"/>
    <connection from="c_b" to="b_bb" fromLane="0" toLane="0" via=":b_0_0" dir="s" state="M"/>
    <connection from="c_b" to="b_bb" fromLane="1" toLane="1" via=":b_0_1" dir="s" state="M"/>
    <connection from="c_b" to="b_bb" fromLane="2" toLane="2" via=":b_0_2" dir="s" state="M"/>
    <connection from="c_l" to="l_ll" fromLane="0" toLane="0" via=":l_0_0" dir="s" state="M"/>
    <connection from="c_l" to="l_ll" fromLane="1" toLane="1" via=":l_0_1" dir="s" state="M"/>
    <connection from="c_l" to="l_ll" fromLane="2" toLane="2" via=":l_0_2" dir="s" state="M"/>
    <connection from="c_r" to="r_rr" fromLane="0" toLane="0" via=":r_3_0" dir="s" state="M"/>
    <connection from="c_r" to="r_rr" fromLane="1" toLane="1" via=":r_3_1" dir="s" state="M"/>
    <connection from="c_r" to="r_rr" fromLane="2" toLane="2" via=":r_3_2" dir="s" state="M"/>
    <connection from="c_t" to="t_tt" fromLane="0" toLane="0" via=":t_3_0" dir="s" state="M"/>
    <connection from="c_t" to="t_tt" fromLane="1" toLane="1" via=":t_3_1" dir="s" state="M"/>
    <connection from="c_t" to="t_tt" fromLane="2" toLane="2" via=":t_3_2" dir="s" state="M"/>
    <connection from="l_c" to="c_b" fromLane="0" toLane="0" via=":c_15_0" tl="c" linkIndex="15" dir="r" state="o"/>
    <connection from="l_c" to="c_r" fromLane="0" toLane="0" via=":c_16_0" tl="c" linkIndex="16" dir="s" state="o"/>
    <connection from="l_c" to="c_r" fromLane="1" toLane="1" via=":c_16_1" tl="c" linkIndex="17" dir="s" state="o"/>
    <connection from="l_c" to="c_r" fromLane="2" toLane="2" via=":c_16_2" tl="c" linkIndex="18" dir="s" state="o"/>
    <connection from="l_c" to="c_t" fromLane="2" toLane="2" via=":c_19_0" tl="c" linkIndex="19" dir="l" state="o"/>
    <connection from="ll_l" to="l_c" fromLane="0" toLane="0" via=":l_3_0" dir="s" state="M"/>
    <connection from="ll_l" to="l_c" fromLane="1" toLane="1" via=":l_3_1" dir="s" state="M"/>
    <connection from="ll_l" to="l_c" fromLane="2" toLane="2" via=":l_3_2" dir="s" state="M"/>
    <connection from="r_c" to="c_t" fromLane="0" toLane="0" via=":c_5_0" tl="c" linkIndex="5" dir="r" state="o"/>
    <connection from="r_c" to="c_l" fromLane="0" toLane="0" via=":c_6_0" tl="c" linkIndex="6" dir="s" state="o"/>
    <connection from="r_c" to="c_l" fromLane="1" toLane="1" via=":c_6_1" tl="c" linkIndex="7" dir="s" state="o"/>
    <connection from="r_c" to="c_l" fromLane="2" toLane="2" via=":c_6_2" tl="c" linkIndex="8" dir="s" state="o"/>
    <connection from="r_c" to="c_b" fromLane="2" toLane="2" via=":c_9_0" tl="c" linkIndex="9" dir="l" state="o"/>
    <connection from="rr_r" to="r_c" fromLane="0" toLane="0" via=":r_0_0" dir="s" state="M"/>
    <connection from="rr_r" to="r_c" fromLane="1" toLane="1" via=":r_0_1" dir="s" state="M"/>
    <connection from="rr_r" to="r_c" fromLane="2" toLane="2" via=":r_0_2" dir="s" state="M"/>
    <connection from="t_c" to="c_l" fromLane="0" toLane="0" via=":c_0_0" tl="c" linkIndex="0" dir="r" state="O"/>
    <connection from="t_c" to="c_b" fromLane="0" toLane="0" via=":c_1_0" tl="c" linkIndex="1" dir="s" state="O"/>
    <connection from="t_c" to="c_b" fromLane="1" toLane="1" via=":c_1_1" tl="c" linkIndex="2" dir="s" state="O"/>
    <connection from="t_c" to="c_b" fromLane="2" toLane="2" via=":c_1_2" tl="c" linkIndex="3" dir="s" state="O"/>
    <connection from="t_c" to="c_r" fromLane="2" toLane="2" via=":c_4_0" tl="c" linkIndex="4" dir="l" state="o"/>
    <connection from="tt_t" to="t_c" fromLane="0" toLane="0" via=":t_0_0" dir="s" state="M"/>
    <connection from="tt_t" to="t_c" fromLane="1" toLane="1" via=":t_0_1" dir="s" state="M"/>
    <connection from="tt_t" to="t_c" fromLane="2" toLane="2" via=":t_0_2" dir="s" state="M"/>

    <connection from=":b_0" to="b_bb" fromLane="0" toLane="0" dir="s" state="M"/>
    <connection from=":b_0" to="b_bb" fromLane="1" toLane="1" dir="s" state="M"/>
    <connection from=":b_0" to="b_bb" fromLane="2" toLane="2" dir="s" state="M"/>
    <connection from=":b_3" to="b_c" fromLane="0" toLane="0" dir="s" state="M"/>
    <connection from=":b_3" to="b_c" fromLane="1" toLane="1" dir="s" state="M"/>
    <connection from=":b_3" to="b_c" fromLane="2" toLane="2" dir="s" state="M"/>
    <connection from=":c_0" to="c_l" fromLane="0" toLane="0" dir="r" state="M"/>
    <connection from=":c_1" to="c_b" fromLane="0" toLane="0" dir="s" state="M"/>
    <connection from=":c_1" to="c_b" fromLane="1" toLane="1" dir="s" state="M"/>
    <connection from=":c_1" to="c_b" fromLane="2" toLane="2" dir="s" state="M"/>
    <connection from=":c_4" to="c_r" fromLane="0" toLane="2" via=":c_20_0" dir="l" state="m"/>
    <connection from=":c_20" to="c_r" fromLane="0" toLane="2" dir="l" state="M"/>
    <connection from=":c_5" to="c_t" fromLane="0" toLane="0" dir="r" state="M"/>
    <connection from=":c_6" to="c_l" fromLane="0" toLane="0" dir="s" state="M"/>
    <connection from=":c_6" to="c_l" fromLane="1" toLane="1" dir="s" state="M"/>
    <connection from=":c_6" to="c_l" fromLane="2" toLane="2" dir="s" state="M"/>
    <connection from=":c_9" to="c_b" fromLane="0" toLane="2" via=":c_21_0" dir="l" state="m"/>
    <connection from=":c_21" to="c_b" fromLane="0" toLane="2" dir="l" state="M"/>
    <connection from=":c_10" to="c_r" fromLane="0" toLane="0" dir="r" state="M"/>
    <connection from=":c_11" to="c_t" fromLane="0" toLane="0" dir="s" state="M"/>
    <connection from=":c_11" to="c_t" fromLane="1" toLane="1" dir="s" state="M"/>
    <connection from=":c_11" to="c_t" fromLane="2" toLane="2" dir="s" state="M"/>
    <connection from=":c_14" to="c_l" fromLane="0" toLane="2" via=":c_22_0" dir="l" state="m"/>
    <connection from=":c_22" to="c_l" fromLane="0" toLane="2" dir="l" state="M"/>
    <connection from=":c_15" to="c_b" fromLane="0" toLane="0" dir="r" state="M"/>
    <connection from=":c_16" to="c_r" fromLane="0" toLane="0" dir="s" state="M"/>
    <connection from=":c_16" to="c_r" fromLane="1" toLane="1" dir="s" state="M"/>
    <connection from=":c_16" to="c_r" fromLane="2" toLane="2" dir="s" state="M"/>
    <connection from=":c_19" to="c_t" fromLane="0" toLane="2" via=":c_23_0" dir="l" state="m"/>
    <connection from=":c_23" to="c_t" fromLane="0" toLane="2" dir="l" state="M"/>
    <connection from=":l_0" to="l_ll" fromLane="0" toLane="0" dir="s" state="M"/>
    <connection from=":l_0" to="l_ll" fromLane="1" toLane="1" dir="s" state="M"/>
    <connection from=":l_0" to="l_ll" fromLane="2" toLane="2" dir="s" state="M"/>
    <connection from=":l_3" to="l_c" fromLane="0" toLane="0" dir="s" state="M"/>
    <connection from=":l_3" to="l_c" fromLane="1" toLane="1" dir="s" state="M"/>
    <connection from=":l_3" to="l_c" fromLane="2" toLane="2" dir="s" state="M"/>
    <connection from=":r_0" to="r_c" fromLane="0" toLane="0" dir="s" state="M"/>
    <connection from=":r_0" to="r_c" fromLane="1" toLane="1" dir="s" state="M"/>
    <connection from=":r_0" to="r_c" fromLane="2" toLane="2" dir="s" state="M"/>
    <connection from=":r_3" to="r_rr" fromLane="0" toLane="0" dir="s" state="M"/>
    <connection from=":r_3" to="r_rr" fromLane="1" toLane="1" dir="s" state="M"/>
    <connection from=":r_3" to="r_rr" fromLane="2" toLane="2" dir="s" state="M"/>
    <connection from=":t_0" to="t_c" fromLane="0" toLane="0" dir="s" state="M"/>
    <connection from=":t_0" to="t_c" fromLane="1" toLane="1" dir="s" state="M"/>
    <connection from=":t_0" to="t_c" fromLane="2" toLane="2" dir="s" state="M"/>
    <connection from=":t_3" to="t_tt" fromLane="0" toLane="0" dir="s" state="M"/>
    <connection from=":t_3" to="t_tt" fromLane="1" toLane="1" dir="s" state="M"/>
    <connection from=":t_3" to="t_tt" fromLane="2" toLane="2" dir="s" state="M"/>

</net>
